/*---------------------------------------------------------------------------*\
  =========                 |
  \\      /  F ield         | OpenFOAM: The Open Source CFD Toolbox
   \\    /   O peration     | Website:  https://openfoam.org
    \\  /    A nd           | Version:  9
     \\/     M anipulation  |
\*---------------------------------------------------------------------------*/
Build  : 9-b456138dc4bc
Exec   : rheoFoam
Date   : May 17 2026
Time   : 07:31:15
Host   : "cc5ad580d661"
PID    : 403
I/O    : uncollated
Case   : //data
nProcs : 1
sigFpe : Enabling floating point exception trapping (FOAM_SIGFPE).
fileModificationChecking : Monitoring run-time modified files using timeStampMaster (fileModificationSkew 10)
allowSystemOperations : Allowing user-supplied system call operations

// * * * * * * * * * * * * * * * * * * * * * * * * * * * * * * * * * * * * * //
Create time

--> FOAM Warning : 
    From function void Foam::Time::setControls()
    in file db/Time/Time.C at line 202
    Increasing the timePrecision from 10 to 16 to support the formatting of the current time directory 7.999786329655222

Create mesh for time = 7.999786329655222


SIMPLE: No convergence criteria found


SIMPLE: No convergence criteria found


SIMPLE: Operating solver in transient mode with 1 outer corrector
SIMPLE: Operating solver in PISO mode


Reading field p

Reading field U

Using dynamicCode for codedFixedValue movLid at line 16158 in "//data/7.999786329655222/U/boundaryField/movingLid"
Creating new library in "dynamicCode/movLid/platforms/linux64GccDPInt32Opt/lib/libmovLid_47055371b99582edf0a773f6c3f3d331892f621c.so"
"/opt/openfoam9/etc/codeTemplates/dynamicCode/codedFixedValueFvPatchFieldTemplate.C" "//data/dynamicCode/movLid/codedFixedValueFvPatchFieldTemplate.C"
"/opt/openfoam9/etc/codeTemplates/dynamicCode/codedFixedValueFvPatchFieldTemplate.H" "//data/dynamicCode/movLid/codedFixedValueFvPatchFieldTemplate.H"
Invoking "wmake -s libso //data/dynamicCode/movLid"
wmake libso //data/dynamicCode/movLid
    ln: ./lnInclude
    wmkdep: codedFixedValueFvPatchFieldTemplate.C
    Ctoo: codedFixedValueFvPatchFieldTemplate.C
    ld: //data/dynamicCode/movLid/../platforms/linux64GccDPInt32Opt/lib/libmovLid_47055371b99582edf0a773f6c3f3d331892f621c.so
Reading/calculating face flux field phi

Using eigenSolver solver for p
Using eigenSolver solver for U
Selecting constitutive equation Oldroyd-BLog
Selecting thermoFunction: Constant
Selecting thermoFunction: Constant
No MRF models present

No fvModels present
No fvConstraints present
Courant Number mean: 0.0265744872153 max: 0.20000003265

Starting time loop

Using dynamicCode for coded kineticEnergy at line 59 in "//data/system/controlDict/functions/kineticEnergy"
Creating new library in "dynamicCode/kineticEnergy/platforms/linux64GccDPInt32Opt/lib/libkineticEnergy_43814293f77940407d31fed82bd2846394aaa497.so"
"/opt/openfoam9/etc/codeTemplates/dynamicCode/codedFunctionObjectTemplate.C" "//data/dynamicCode/kineticEnergy/codedFunctionObjectTemplate.C"
"/opt/openfoam9/etc/codeTemplates/dynamicCode/codedFunctionObjectTemplate.H" "//data/dynamicCode/kineticEnergy/codedFunctionObjectTemplate.H"
Invoking "wmake -s libso //data/dynamicCode/kineticEnergy"
wmake libso //data/dynamicCode/kineticEnergy
    ln: ./lnInclude
    wmkdep: codedFunctionObjectTemplate.C
    Ctoo: codedFunctionObjectTemplate.C
    ld: //data/dynamicCode/kineticEnergy/../platforms/linux64GccDPInt32Opt/lib/libkineticEnergy_43814293f77940407d31fed82bd2846394aaa497.so
Courant Number mean: 0.0265744872153 max: 0.20000003265
deltaT = 0.00169098158163
Time = 8.001477311512902

Inner iteration:  0

Eigen:BiCGSTAB:ILUT: Solving for Ux, Initial residual = 0.0232230267527 Final residual = 2.98329527039e-14, No Iterations 1
Eigen:BiCGSTAB:ILUT: Solving for Uy, Initial residual = 0.229852910706 Final residual = 2.254582712e-14, No Iterations 1
Eigen:BiCGSTAB:ILUT: Solving for p, Initial residual = 0.0010954808707 Final residual = 3.45263123741e-14, No Iterations 1
time step continuity errors : sum local = 1.71675998671e-15, global = 2.09766757667e-21, cumulative = 2.09766757667e-21
DILUPBiCG:  Solving for thetaxx, Initial residual = 3.03051643615e-05, Final residual = 1.06283509273e-13, No Iterations 2
DILUPBiCG:  Solving for thetaxy, Initial residual = 3.49733938712e-05, Final residual = 5.90384983378e-14, No Iterations 2
DILUPBiCG:  Solving for thetayy, Initial residual = 2.83562085093e-05, Final residual = 1.33658581241e-13, No Iterations 2
DILUPBiCG:  Solving for thetazz, Initial residual = 0, Final residual = 0, No Iterations 0
ExecutionTime = 4.76 s  ClockTime = 41 s

Courant Number mean: 0.0266578451898 max: 0.199976013152
deltaT = 0.00169118441255
Time = 8.003168293094529

Inner iteration:  0

Eigen:BiCGSTAB:ILUT: Solving for Ux, Initial residual = 0.0221392556136 Final residual = 2.94818608856e-14, No Iterations 1
Eigen:BiCGSTAB:ILUT: Solving for Uy, Initial residual = 0.243362151512 Final residual = 2.16006047266e-14, No Iterations 1
Eigen:BiCGSTAB:ILUT: Solving for p, Initial residual = 0.00103917176291 Final residual = 3.47741621668e-14, No Iterations 1
time step continuity errors : sum local = 1.75495428577e-15, global = -7.4492781096e-21, cumulative = -5.35161053293e-21
DILUPBiCG:  Solving for thetaxx, Initial residual = 4.01307506714e-05, Final residual = 1.08043071513e-13, No Iterations 2
DILUPBiCG:  Solving for thetaxy, Initial residual = 4.6305766559e-05, Final residual = 9.13647121062e-14, No Iterations 2
DILUPBiCG:  Solving for thetayy, Initial residual = 3.93178852221e-05, Final residual = 1.04878440157e-13, No Iterations 2
DILUPBiCG:  Solving for thetazz, Initial residual = 0, Final residual = 0, No Iterations 0
ExecutionTime = 7.65 s  ClockTime = 44 s

Courant Number mean: 0.0267120395405 max: 0.199998353463
deltaT = 0.00169119833565
Time = 8.004859477507075

Inner iteration:  0

Eigen:BiCGSTAB:ILUT: Solving for Ux, Initial residual = 0.0211616067072 Final residual = 1.68832923411e-14, No Iterations 2
Eigen:BiCGSTAB:ILUT: Solving for Uy, Initial residual = 0.245007156653 Final residual = 2.33775827691e-14, No Iterations 2
Eigen:BiCGSTAB:ILUT: Solving for p, Initial residual = 0.00101414362013 Final residual = 3.47478703406e-14, No Iterations 2
time step continuity errors : sum local = 1.76545795417e-15, global = 1.0439001995e-20, cumulative = 5.08739146206e-21
DILUPBiCG:  Solving for thetaxx, Initial residual = 4.0477017333e-05, Final residual = 1.15718591127e-13, No Iterations 2
DILUPBiCG:  Solving for thetaxy, Initial residual = 4.68132016553e-05, Final residual = 9.33079784384e-14, No Iterations 2
DILUPBiCG:  Solving for thetayy, Initial residual = 3.98678231345e-05, Final residual = 1.11727560992e-13, No Iterations 2
DILUPBiCG:  Solving for thetazz, Initial residual = 0, Final residual = 0, No Iterations 0
ExecutionTime = 7.99 s  ClockTime = 44 s

Courant Number mean: 0.0267057151411 max: 0.199991279871
deltaT = 0.0016912720762
Time = 8.006550675842723

Inner iteration:  0

Eigen:BiCGSTAB:ILUT: Solving for Ux, Initial residual = 0.0208273587476 Final residual = 1.66913042131e-14, No Iterations 2
Eigen:BiCGSTAB:ILUT: Solving for Uy, Initial residual = 0.240314423697 Final residual = 2.3685257675e-14, No Iterations 2
Eigen:BiCGSTAB:ILUT: Solving for p, Initial residual = 0.000988714353836 Final residual = 3.4879628671e-14, No Iterations 2
time step continuity errors : sum local = 1.75767264157e-15, global = -1.4479632254e-20, cumulative = -9.39224079196e-21
DILUPBiCG:  Solving for thetaxx, Initial residual = 4.0296753759e-05, Final residual = 1.20379991823e-13, No Iterations 2
DILUPBiCG:  Solving for thetaxy, Initial residual = 4.60804012565e-05, Final residual = 9.20987989181e-14, No Iterations 2
DILUPBiCG:  Solving for thetayy, Initial residual = 3.97101346783e-05, Final residual = 1.17659297254e-13, No Iterations 2
DILUPBiCG:  Solving for thetazz, Initial residual = 0, Final residual = 0, No Iterations 0
ExecutionTime = 8.34 s  ClockTime = 45 s

Courant Number mean: 0.0267196516194 max: 0.199997516578
deltaT = 0.00169129307717
Time = 8.00824194791892

Inner iteration:  0

Eigen:BiCGSTAB:ILUT: Solving for Ux, Initial residual = 0.0203340776965 Final residual = 1.72782351085e-14, No Iterations 2
Eigen:BiCGSTAB:ILUT: Solving for Uy, Initial residual = 0.240497398374 Final residual = 2.40997104613e-14, No Iterations 2
Eigen:BiCGSTAB:ILUT: Solving for p, Initial residual = 0.000973730224554 Final residual = 3.53213235908e-14, No Iterations 2
time step continuity errors : sum local = 1.76201560043e-15, global = 5.13373221381e-21, cumulative = -4.25850857815e-21
DILUPBiCG:  Solving for thetaxx, Initial residual = 4.03798260216e-05, Final residual = 1.26156271926e-13, No Iterations 2
DILUPBiCG:  Solving for thetaxy, Initial residual = 4.59279883191e-05, Final residual = 9.17613490371e-14, No Iterations 2
DILUPBiCG:  Solving for thetayy, Initial residual = 3.98810750814e-05, Final residual = 1.26365862023e-13, No Iterations 2
DILUPBiCG:  Solving for thetazz, Initial residual = 0, Final residual = 0, No Iterations 0
ExecutionTime = 8.68 s  ClockTime = 45 s

Courant Number mean: 0.0267203527221 max: 0.199994636397
deltaT = 0.00169133843551
Time = 8.009933240996091

Inner iteration:  0

Eigen:BiCGSTAB:ILUT: Solving for Ux, Initial residual = 0.0201152075335 Final residual = 1.57777434675e-14, No Iterations 2
Eigen:BiCGSTAB:ILUT: Solving for Uy, Initial residual = 0.237651700709 Final residual = 2.30391050281e-14, No Iterations 2
Eigen:BiCGSTAB:ILUT: Solving for p, Initial residual = 0.0009587077067 Final residual = 3.52933434961e-14, No Iterations 2
time step continuity errors : sum local = 1.71689597161e-15, global = 4.46907854007e-21, cumulative = 2.10569961924e-22
DILUPBiCG:  Solving for thetaxx, Initial residual = 4.02411931266e-05, Final residual = 1.30129657612e-13, No Iterations 2
DILUPBiCG:  Solving for thetaxy, Initial residual = 4.54734490878e-05, Final residual = 9.03973722149e-14, No Iterations 2
DILUPBiCG:  Solving for thetayy, Initial residual = 3.9831448161e-05, Final residual = 1.36116245227e-13, No Iterations 2
DILUPBiCG:  Solving for thetazz, Initial residual = 0, Final residual = 0, No Iterations 0
ExecutionTime = 9.03 s  ClockTime = 46 s

Courant Number mean: 0.0267261370399 max: 0.199998051673
deltaT = 0.00169135491207
Time = 8.011624579431601

Inner iteration:  0

Eigen:BiCGSTAB:ILUT: Solving for Ux, Initial residual = 0.0197695879104 Final residual = 1.61325032033e-14, No Iterations 2
Eigen:BiCGSTAB:ILUT: Solving for Uy, Initial residual = 0.237406647463 Final residual = 2.44202185186e-14, No Iterations 2
Eigen:BiCGSTAB:ILUT: Solving for p, Initial residual = 0.000946562908094 Final residual = 3.48136182088e-14, No Iterations 2
time step continuity errors : sum local = 1.72389939464e-15, global = -2.62672202915e-21, cumulative = -2.41615206723e-21
DILUPBiCG:  Solving for thetaxx, Initial residual = 4.02232564201e-05, Final residual = 1.34230500359e-13, No Iterations 2
DILUPBiCG:  Solving for thetaxy, Initial residual = 4.52218127369e-05, Final residual = 8.93580928259e-14, No Iterations 2
DILUPBiCG:  Solving for thetayy, Initial residual = 3.98918451388e-05, Final residual = 1.49583392576e-13, No Iterations 2
DILUPBiCG:  Solving for thetazz, Initial residual = 0, Final residual = 0, No Iterations 0
ExecutionTime = 9.37 s  ClockTime = 46 s

Courant Number mean: 0.0267270687453 max: 0.199996254422
deltaT = 0.00169138658817
Time = 8.01331593434367

Inner iteration:  0

Eigen:BiCGSTAB:ILUT: Solving for Ux, Initial residual = 0.0196015528295 Final residual = 1.67807576547e-14, No Iterations 2
Eigen:BiCGSTAB:ILUT: Solving for Uy, Initial residual = 0.235434070923 Final residual = 2.40230028911e-14, No Iterations 2
Eigen:BiCGSTAB:ILUT: Solving for p, Initial residual = 0.000935284499051 Final residual = 3.48957528181e-14, No Iterations 2
time step continuity errors : sum local = 1.74070288146e-15, global = -3.17556960815e-21, cumulative = -5.59172167538e-21
DILUPBiCG:  Solving for thetaxx, Initial residual = 4.00757317964e-05, Final residual = 1.36907852703e-13, No Iterations 2
DILUPBiCG:  Solving for thetaxy, Initial residual = 4.48756976133e-05, Final residual = 9.04283975832e-14, No Iterations 2
DILUPBiCG:  Solving for thetayy, Initial residual = 3.98080375891e-05, Final residual = 1.66165606336e-13, No Iterations 2
DILUPBiCG:  Solving for thetazz, Initial residual = 0, Final residual = 0, No Iterations 0
ExecutionTime = 9.71 s  ClockTime = 46 s

Courant Number mean: 0.0267302083141 max: 0.199998524738
deltaT = 0.00169139906446
Time = 8.01500732093184

Inner iteration:  0

Eigen:BiCGSTAB:ILUT: Solving for Ux, Initial residual = 0.0193394903766 Final residual = 1.61328289137e-14, No Iterations 2
Eigen:BiCGSTAB:ILUT: Solving for Uy, Initial residual = 0.235062828667 Final residual = 2.37457831601e-14, No Iterations 2
Eigen:BiCGSTAB:ILUT: Solving for p, Initial residual = 0.000924831815981 Final residual = 3.55839642929e-14, No Iterations 2
time step continuity errors : sum local = 1.77205483813e-15, global = -5.08877929268e-23, cumulative = -5.6426094683e-21
DILUPBiCG:  Solving for thetaxx, Initial residual = 4.00073336158e-05, Final residual = 1.3945217515e-13, No Iterations 2
DILUPBiCG:  Solving for thetaxy, Initial residual = 4.46013847299e-05, Final residual = 9.19834788702e-14, No Iterations 2
DILUPBiCG:  Solving for thetayy, Initial residual = 3.97836473023e-05, Final residual = 1.8934370868e-13, No Iterations 2
DILUPBiCG:  Solving for thetazz, Initial residual = 0, Final residual = 0, No Iterations 0
ExecutionTime = 10.05 s  ClockTime = 47 s

Courant Number mean: 0.026730789735 max: 0.199997268895
deltaT = 0.00169142216172
Time = 8.016698719996295

Inner iteration:  0

Eigen:BiCGSTAB:ILUT: Solving for Ux, Initial residual = 0.0192030527895 Final residual = 1.65249759561e-14, No Iterations 2
Eigen:BiCGSTAB:ILUT: Solving for Uy, Initial residual = 0.233505841065 Final residual = 2.37954726898e-14, No Iterations 2
Eigen:BiCGSTAB:ILUT: Solving for p, Initial residual = 0.000915490312837 Final residual = 3.54574186429e-14, No Iterations 2
time step continuity errors : sum local = 1.74749059671e-15, global = -1.85782435549e-21, cumulative = -7.50043382379e-21
DILUPBiCG:  Solving for thetaxx, Initial residual = 3.98824638475e-05, Final residual = 1.41004885995e-13, No Iterations 2
DILUPBiCG:  Solving for thetaxy, Initial residual = 4.42727016608e-05, Final residual = 9.33237353787e-14, No Iterations 2
DILUPBiCG:  Solving for thetayy, Initial residual = 3.96716640975e-05, Final residual = 2.20818618183e-13, No Iterations 2
DILUPBiCG:  Solving for thetazz, Initial residual = 0, Final residual = 0, No Iterations 0
ExecutionTime = 10.4 s  ClockTime = 47 s

Courant Number mean: 0.0267326596422 max: 0.19999889399
deltaT = 0.00169143151541
Time = 8.018390142158012

Inner iteration:  0

Eigen:BiCGSTAB:ILUT: Solving for Ux, Initial residual = 0.0189931168583 Final residual = 1.6019244174e-14, No Iterations 2
Eigen:BiCGSTAB:ILUT: Solving for Uy, Initial residual = 0.233080262746 Final residual = 2.35313964444e-14, No Iterations 2
Eigen:BiCGSTAB:ILUT: Solving for p, Initial residual = 0.00090630655891 Final residual = 3.46805371461e-14, No Iterations 2
time step continuity errors : sum local = 1.70837667129e-15, global = -3.89628437484e-21, cumulative = -1.13967181986e-20
DILUPBiCG:  Solving for thetaxx, Initial residual = 3.98513865423e-05, Final residual = 1.42481337429e-13, No Iterations 2
DILUPBiCG:  Solving for thetaxy, Initial residual = 4.3986609322e-05, Final residual = 9.45580860945e-14, No Iterations 2
DILUPBiCG:  Solving for thetayy, Initial residual = 3.9593363408e-05, Final residual = 2.6704043363e-13, No Iterations 2
DILUPBiCG:  Solving for thetazz, Initial residual = 0, Final residual = 0, No Iterations 0
ExecutionTime = 10.75 s  ClockTime = 47 s

Courant Number mean: 0.0267329415247 max: 0.199997966976
deltaT = 0.00169144870919
Time = 8.020081573673426

Inner iteration:  0

Eigen:BiCGSTAB:ILUT: Solving for Ux, Initial residual = 0.0188737932346 Final residual = 1.62263816897e-14, No Iterations 2
Eigen:BiCGSTAB:ILUT: Solving for Uy, Initial residual = 0.231775569921 Final residual = 2.3726055524e-14, No Iterations 2
Eigen:BiCGSTAB:ILUT: Solving for p, Initial residual = 0.000898189742315 Final residual = 3.45746829926e-14, No Iterations 2
time step continuity errors : sum local = 1.76242451663e-15, global = 3.70743535169e-21, cumulative = -7.68928284694e-21
DILUPBiCG:  Solving for thetaxx, Initial residual = 3.9787217481e-05, Final residual = 1.43264161284e-13, No Iterations 2
DILUPBiCG:  Solving for thetaxy, Initial residual = 4.36828231919e-05, Final residual = 9.55614534586e-14, No Iterations 2
DILUPBiCG:  Solving for thetayy, Initial residual = 3.94607090245e-05, Final residual = 3.34879387722e-13, No Iterations 2
DILUPBiCG:  Solving for thetazz, Initial residual = 0, Final residual = 0, No Iterations 0
ExecutionTime = 11.09 s  ClockTime = 48 s

Courant Number mean: 0.0267340671755 max: 0.199999168589
deltaT = 0.00169145574066
Time = 8.02177302238262

Inner iteration:  0

Eigen:BiCGSTAB:ILUT: Solving for Ux, Initial residual = 0.0186962433037 Final residual = 1.65406925837e-14, No Iterations 2
Eigen:BiCGSTAB:ILUT: Solving for Uy, Initial residual = 0.231294826525 Final residual = 2.39543181995e-14, No Iterations 2
Eigen:BiCGSTAB:ILUT: Solving for p, Initial residual = 0.000889897284286 Final residual = 3.46566707155e-14, No Iterations 2
time step continuity errors : sum local = 1.73731755971e-15, global = -5.43532635528e-21, cumulative = -1.31246092022e-20
DILUPBiCG:  Solving for thetaxx, Initial residual = 3.97477174958e-05, Final residual = 1.43895529151e-13, No Iterations 2
DILUPBiCG:  Solving for thetaxy, Initial residual = 4.34193360356e-05, Final residual = 9.64638310012e-14, No Iterations 2
DILUPBiCG:  Solving for thetayy, Initial residual = 3.93670735177e-05, Final residual = 4.45914661402e-13, No Iterations 2
DILUPBiCG:  Solving for thetazz, Initial residual = 0, Final residual = 0, No Iterations 0
ExecutionTime = 11.43 s  ClockTime = 48 s

Courant Number mean: 0.026734127212 max: 0.199998458156
deltaT = 0.00169146878057
Time = 8.023464478123284

Inner iteration:  0

Eigen:BiCGSTAB:ILUT: Solving for Ux, Initial residual = 0.0185868392753 Final residual = 1.84122642717e-14, No Iterations 2
Eigen:BiCGSTAB:ILUT: Solving for Uy, Initial residual = 0.230134638126 Final residual = 2.36276207069e-14, No Iterations 2
Eigen:BiCGSTAB:ILUT: Solving for p, Initial residual = 0.000882624785263 Final residual = 3.47231145837e-14, No Iterations 2
time step continuity errors : sum local = 1.7361182213e-15, global = 1.16845830001e-22, cumulative = -1.30077633722e-20
DILUPBiCG:  Solving for thetaxx, Initial residual = 3.96682129975e-05, Final residual = 1.44104025412e-13, No Iterations 2
DILUPBiCG:  Solving for thetaxy, Initial residual = 4.31491476094e-05, Final residual = 9.71339818435e-14, No Iterations 2
DILUPBiCG:  Solving for thetayy, Initial residual = 3.92370147239e-05, Final residual = 6.47525772283e-13, No Iterations 2
DILUPBiCG:  Solving for thetazz, Initial residual = 0, Final residual = 0, No Iterations 0
ExecutionTime = 11.78 s  ClockTime = 48 s

Courant Number mean: 0.026734778037 max: 0.199999363941
deltaT = 0.00169147415995
Time = 8.025155946903853

Inner iteration:  0

Eigen:BiCGSTAB:ILUT: Solving for Ux, Initial residual = 0.0184305889851 Final residual = 1.46218323005e-14, No Iterations 2
Eigen:BiCGSTAB:ILUT: Solving for Uy, Initial residual = 0.229605512894 Final residual = 2.40224697602e-14, No Iterations 2
Eigen:BiCGSTAB:ILUT: Solving for p, Initial residual = 0.000875150732075 Final residual = 3.44951581469e-14, No Iterations 2
time step continuity errors : sum local = 1.73638864744e-15, global = -6.43048670443e-21, cumulative = -1.94382500766e-20
DILUPBiCG:  Solving for thetaxx, Initial residual = 3.9605781006e-05, Final residual = 1.44234365329e-13, No Iterations 2
DILUPBiCG:  Solving for thetaxy, Initial residual = 4.29054728414e-05, Final residual = 9.77222158633e-14, No Iterations 2
DILUPBiCG:  Solving for thetayy, Initial residual = 3.91214586328e-05, Final residual = 1.100924945e-12, No Iterations 2
DILUPBiCG:  Solving for thetazz, Initial residual = 0, Final residual = 0, No Iterations 0
ExecutionTime = 12.12 s  ClockTime = 49 s

Courant Number mean: 0.0267346816118 max: 0.199998804428
deltaT = 0.00169148427141
Time = 8.026847421063808

Inner iteration:  0

Eigen:BiCGSTAB:ILUT: Solving for Ux, Initial residual = 0.0183297466813 Final residual = 1.60195509506e-14, No Iterations 2
Eigen:BiCGSTAB:ILUT: Solving for Uy, Initial residual = 0.228527960965 Final residual = 2.38372820743e-14, No Iterations 2
Eigen:BiCGSTAB:ILUT: Solving for p, Initial residual = 0.000868614507181 Final residual = 3.43772319183e-14, No Iterations 2
time step continuity errors : sum local = 1.7313538969e-15, global = -6.31593369587e-21, cumulative = -2.57541837725e-20
DILUPBiCG:  Solving for thetaxx, Initial residual = 3.95284027784e-05, Final residual = 1.43965284383e-13, No Iterations 2
DILUPBiCG:  Solving for thetaxy, Initial residual = 4.26665525762e-05, Final residual = 9.81406229991e-14, No Iterations 2
DILUPBiCG:  Solving for thetayy, Initial residual = 3.89842098645e-05, Final residual = 2.26253135797e-12, No Iterations 2
DILUPBiCG:  Solving for thetazz, Initial residual = 0, Final residual = 0, No Iterations 0
ExecutionTime = 12.46 s  ClockTime = 49 s

Courant Number mean: 0.0267350216007 max: 0.199999497708
deltaT = 0.00169148851952
Time = 8.028538905335223

Inner iteration:  0

Eigen:BiCGSTAB:ILUT: Solving for Ux, Initial residual = 0.0181937447603 Final residual = 1.76173356961e-14, No Iterations 2
Eigen:BiCGSTAB:ILUT: Solving for Uy, Initial residual = 0.227963337778 Final residual = 2.41252320547e-14, No Iterations 2
Eigen:BiCGSTAB:ILUT: Solving for p, Initial residual = 0.000861770703736 Final residual = 3.43240425312e-14, No Iterations 2
time step continuity errors : sum local = 1.81127386651e-15, global = 2.41348387592e-21, cumulative = -2.33406998966e-20
DILUPBiCG:  Solving for thetaxx, Initial residual = 3.94592047409e-05, Final residual = 1.43682466998e-13, No Iterations 2
DILUPBiCG:  Solving for thetaxy, Initial residual = 4.24723378809e-05, Final residual = 9.8457925622e-14, No Iterations 2
DILUPBiCG:  Solving for thetayy, Initial residual = 3.88562751645e-05, Final residual = 5.50188171335e-12, No Iterations 2
DILUPBiCG:  Solving for thetazz, Initial residual = 0, Final residual = 0, No Iterations 0
ExecutionTime = 12.81 s  ClockTime = 49 s

Courant Number mean: 0.0267348165317 max: 0.199999048879
deltaT = 0.00169149656362
Time = 8.030230393854746

Inner iteration:  0

Eigen:BiCGSTAB:ILUT: Solving for Ux, Initial residual = 0.0181019737994 Final residual = 1.52555213687e-14, No Iterations 2
Eigen:BiCGSTAB:ILUT: Solving for Uy, Initial residual = 0.226945053573 Final residual = 2.43185357035e-14, No Iterations 2
Eigen:BiCGSTAB:ILUT: Solving for p, Initial residual = 0.000855681201453 Final residual = 3.48463199579e-14, No Iterations 2
time step continuity errors : sum local = 1.7607386478e-15, global = -1.41391709075e-20, cumulative = -3.74798708041e-20
DILUPBiCG:  Solving for thetaxx, Initial residual = 3.93662734077e-05, Final residual = 1.43337319236e-13, No Iterations 2
DILUPBiCG:  Solving for thetaxy, Initial residual = 4.22839770977e-05, Final residual = 9.86114811362e-14, No Iterations 2
DILUPBiCG:  Solving for thetayy, Initial residual = 3.87320041112e-05, Final residual = 6.50796691788e-11, No Iterations 2
DILUPBiCG:  Solving for thetazz, Initial residual = 0, Final residual = 0, No Iterations 0
ExecutionTime = 13.15 s  ClockTime = 50 s

Courant Number mean: 0.0267349394898 max: 0.199999587147
deltaT = 0.00169150005532
Time = 8.031921890418362

Inner iteration:  0

Eigen:BiCGSTAB:ILUT: Solving for Ux, Initial residual = 0.0179808909338 Final residual = 1.56795950582e-14, No Iterations 2
Eigen:BiCGSTAB:ILUT: Solving for Uy, Initial residual = 0.226342209598 Final residual = 2.35276127203e-14, No Iterations 2
Eigen:BiCGSTAB:ILUT: Solving for p, Initial residual = 0.000849297474866 Final residual = 3.51926339328e-14, No Iterations 2
time step continuity errors : sum local = 1.72460313062e-15, global = -1.18911495287e-20, cumulative = -4.93710203328e-20
DILUPBiCG:  Solving for thetaxx, Initial residual = 3.92802503059e-05, Final residual = 1.42949555046e-13, No Iterations 2
DILUPBiCG:  Solving for thetaxy, Initial residual = 4.21076477139e-05, Final residual = 9.86869299431e-14, No Iterations 2
DILUPBiCG:  Solving for thetayy, Initial residual = 3.86160916665e-05, Final residual = 1.30824631104e-11, No Iterations 2
DILUPBiCG:  Solving for thetazz, Initial residual = 0, Final residual = 0, No Iterations 0
ExecutionTime = 13.5 s  ClockTime = 50 s

Courant Number mean: 0.0267346502276 max: 0.199999223263
deltaT = 0.0016915066246
Time = 8.033613390473684

Inner iteration:  0

Eigen:BiCGSTAB:ILUT: Solving for Ux, Initial residual = 0.0178921259931 Final residual = 1.52592442513e-14, No Iterations 2
Eigen:BiCGSTAB:ILUT: Solving for Uy, Initial residual = 0.225356218521 Final residual = 2.40368391283e-14, No Iterations 2
Eigen:BiCGSTAB:ILUT: Solving for p, Initial residual = 0.000843559046551 Final residual = 3.40383074678e-14, No Iterations 2
time step continuity errors : sum local = 1.71384731459e-15, global = 2.94914996212e-21, cumulative = -4.64218703707e-20
DILUPBiCG:  Solving for thetaxx, Initial residual = 3.91779112499e-05, Final residual = 1.42447797998e-13, No Iterations 2
DILUPBiCG:  Solving for thetaxy, Initial residual = 4.19278574742e-05, Final residual = 9.86411558232e-14, No Iterations 2
DILUPBiCG:  Solving for thetayy, Initial residual = 3.84864540815e-05, Final residual = 8.35743479052e-12, No Iterations 2
DILUPBiCG:  Solving for thetazz, Initial residual = 0, Final residual = 0, No Iterations 0
ExecutionTime = 13.83 s  ClockTime = 50 s

Courant Number mean: 0.0267346188219 max: 0.199999647026
deltaT = 0.0016915096099
Time = 8.035304897098287

Inner iteration:  0

Eigen:BiCGSTAB:ILUT: Solving for Ux, Initial residual = 0.0177797135489 Final residual = 1.56592121179e-14, No Iterations 2
Eigen:BiCGSTAB:ILUT: Solving for Uy, Initial residual = 0.224731894451 Final residual = 2.34082111057e-14, No Iterations 2
Eigen:BiCGSTAB:ILUT: Solving for p, Initial residual = 0.000837484109007 Final residual = 3.41690962232e-14, No Iterations 2
time step continuity errors : sum local = 1.70934479692e-15, global = -1.09146422634e-21, cumulative = -4.75133345971e-20
DILUPBiCG:  Solving for thetaxx, Initial residual = 3.90806506758e-05, Final residual = 1.41938754878e-13, No Iterations 2
DILUPBiCG:  Solving for thetaxy, Initial residual = 4.17570234262e-05, Final residual = 9.85356372357e-14, No Iterations 2
DILUPBiCG:  Solving for thetayy, Initial residual = 3.83601973346e-05, Final residual = 9.87415934243e-12, No Iterations 2
DILUPBiCG:  Solving for thetazz, Initial residual = 0, Final residual = 0, No Iterations 0
ExecutionTime = 14.17 s  ClockTime = 51 s

Courant Number mean: 0.0267342679183 max: 0.199999350394
deltaT = 0.00169151510399
Time = 8.036996406708182

Inner iteration:  0

Eigen:BiCGSTAB:ILUT: Solving for Ux, Initial residual = 0.0176931246284 Final residual = 1.64261651575e-14, No Iterations 2
Eigen:BiCGSTAB:ILUT: Solving for Uy, Initial residual = 0.22377703001 Final residual = 2.3878419321e-14, No Iterations 2
Eigen:BiCGSTAB:ILUT: Solving for p, Initial residual = 0.000832002753898 Final residual = 3.43466669779e-14, No Iterations 2
time step continuity errors : sum local = 1.72205600474e-15, global = 1.03087731266e-21, cumulative = -4.64824572844e-20
DILUPBiCG:  Solving for thetaxx, Initial residual = 3.89705545337e-05, Final residual = 1.41356933926e-13, No Iterations 2
DILUPBiCG:  Solving for thetaxy, Initial residual = 4.15892322777e-05, Final residual = 9.83329367602e-14, No Iterations 2
DILUPBiCG:  Solving for thetayy, Initial residual = 3.82238943589e-05, Final residual = 2.21745282407e-11, No Iterations 2
DILUPBiCG:  Solving for thetazz, Initial residual = 0, Final residual = 0, No Iterations 0
ExecutionTime = 14.51 s  ClockTime = 51 s

Courant Number mean: 0.0267341243393 max: 0.199999688355
deltaT = 0.00169151773975
Time = 8.038687921812169

Inner iteration:  0

Eigen:BiCGSTAB:ILUT: Solving for Ux, Initial residual = 0.0175864004729 Final residual = 1.51084267782e-14, No Iterations 2
Eigen:BiCGSTAB:ILUT: Solving for Uy, Initial residual = 0.223146084144 Final residual = 2.37869545475e-14, No Iterations 2
Eigen:BiCGSTAB:ILUT: Solving for p, Initial residual = 0.000826172639813 Final residual = 3.44412523406e-14, No Iterations 2
time step continuity errors : sum local = 1.67736761079e-15, global = 9.91360177437e-22, cumulative = -4.5491097107e-20
DILUPBiCG:  Solving for thetaxx, Initial residual = 3.88664664645e-05, Final residual = 1.4074527387e-13, No Iterations 2
DILUPBiCG:  Solving for thetaxy, Initial residual = 4.14378930971e-05, Final residual = 9.8098323751e-14, No Iterations 2
DILUPBiCG:  Solving for thetayy, Initial residual = 3.80911339323e-05, Final residual = 1.36441917253e-11, No Iterations 2
DILUPBiCG:  Solving for thetazz, Initial residual = 0, Final residual = 0, No Iterations 0
ExecutionTime = 14.85 s  ClockTime = 51 s

Courant Number mean: 0.0267337268912 max: 0.199999446125
deltaT = 0.00169152242421
Time = 8.040379439551923

Inner iteration:  0

Eigen:BiCGSTAB:ILUT: Solving for Ux, Initial residual = 0.0175004863678 Final residual = 1.76381416652e-14, No Iterations 2
Eigen:BiCGSTAB:ILUT: Solving for Uy, Initial residual = 0.222229136224 Final residual = 2.38028790701e-14, No Iterations 2
Eigen:BiCGSTAB:ILUT: Solving for p, Initial residual = 0.000820874756232 Final residual = 3.46614455493e-14, No Iterations 2
time step continuity errors : sum local = 1.74452475133e-15, global = -2.6982515541e-21, cumulative = -4.81893486611e-20
DILUPBiCG:  Solving for thetaxx, Initial residual = 3.87533055977e-05, Final residual = 1.40079380536e-13, No Iterations 2
DILUPBiCG:  Solving for thetaxy, Initial residual = 4.12894362166e-05, Final residual = 9.78127539021e-14, No Iterations 2
DILUPBiCG:  Solving for thetayy, Initial residual = 3.79503942187e-05, Final residual = 4.28668685131e-12, No Iterations 2
DILUPBiCG:  Solving for thetazz, Initial residual = 0, Final residual = 0, No Iterations 0
ExecutionTime = 15.19 s  ClockTime = 52 s

Courant Number mean: 0.0267335019925 max: 0.199999718754
deltaT = 0.00169152480289
Time = 8.042070961976137

Inner iteration:  0

Eigen:BiCGSTAB:ILUT: Solving for Ux, Initial residual = 0.0173975008113 Final residual = 1.51022688375e-14, No Iterations 2
Eigen:BiCGSTAB:ILUT: Solving for Uy, Initial residual = 0.221587458974 Final residual = 2.34947539926e-14, No Iterations 2
Eigen:BiCGSTAB:ILUT: Solving for p, Initial residual = 0.000815301021635 Final residual = 3.35297359739e-14, No Iterations 2
time step continuity errors : sum local = 1.69898120397e-15, global = -8.99139356425e-21, cumulative = -5.71807422253e-20
DILUPBiCG:  Solving for thetaxx, Initial residual = 3.86456680998e-05, Final residual = 1.39417214246e-13, No Iterations 2
DILUPBiCG:  Solving for thetaxy, Initial residual = 4.11507571829e-05, Final residual = 9.74759602845e-14, No Iterations 2
DILUPBiCG:  Solving for thetayy, Initial residual = 3.78120013033e-05, Final residual = 2.37132118642e-12, No Iterations 2
DILUPBiCG:  Solving for thetazz, Initial residual = 0, Final residual = 0, No Iterations 0
ExecutionTime = 15.53 s  ClockTime = 52 s

Courant Number mean: 0.0267330774031 max: 0.199999521044
deltaT = 0.00169152885373
Time = 8.043762486779023

Inner iteration:  0

Eigen:BiCGSTAB:ILUT: Solving for Ux, Initial residual = 0.0173117591157 Final residual = 1.63617732149e-14, No Iterations 2
Eigen:BiCGSTAB:ILUT: Solving for Uy, Initial residual = 0.220687690639 Final residual = 2.35247721293e-14, No Iterations 2
Eigen:BiCGSTAB:ILUT: Solving for p, Initial residual = 0.000810220538479 Final residual = 3.41329844801e-14, No Iterations 2
time step continuity errors : sum local = 1.73559801194e-15, global = 3.20908729679e-21, cumulative = -5.39716549285e-20
DILUPBiCG:  Solving for thetaxx, Initial residual = 3.8532163803e-05, Final residual = 1.38762426681e-13, No Iterations 2
DILUPBiCG:  Solving for thetaxy, Initial residual = 4.10123163296e-05, Final residual = 9.70709509674e-14, No Iterations 2
DILUPBiCG:  Solving for thetayy, Initial residual = 3.76668825513e-05, Final residual = 1.6273815676e-12, No Iterations 2
DILUPBiCG:  Solving for thetazz, Initial residual = 0, Final residual = 0, No Iterations 0
ExecutionTime = 15.88 s  ClockTime = 52 s

Courant Number mean: 0.0267327945692 max: 0.199999742991
deltaT = 0.00169153102742
Time = 8.04545401563275

Inner iteration:  0

Eigen:BiCGSTAB:ILUT: Solving for Ux, Initial residual = 0.0172118607443 Final residual = 1.49904634101e-14, No Iterations 2
Eigen:BiCGSTAB:ILUT: Solving for Uy, Initial residual = 0.220038053702 Final residual = 2.30531288397e-14, No Iterations 2
Eigen:BiCGSTAB:ILUT: Solving for p, Initial residual = 0.000804792107738 Final residual = 3.35309847208e-14, No Iterations 2
time step continuity errors : sum local = 1.71019802174e-15, global = -3.50600761209e-22, cumulative = -5.43222556897e-20
DILUPBiCG:  Solving for thetaxx, Initial residual = 3.84247747179e-05, Final residual = 1.38107396786e-13, No Iterations 2
DILUPBiCG:  Solving for thetaxy, Initial residual = 4.08809451196e-05, Final residual = 9.66391758574e-14, No Iterations 2
DILUPBiCG:  Solving for thetayy, Initial residual = 3.75263816286e-05, Final residual = 1.14191681857e-12, No Iterations 2
DILUPBiCG:  Solving for thetazz, Initial residual = 0, Final residual = 0, No Iterations 0
ExecutionTime = 16.23 s  ClockTime = 53 s

Courant Number mean: 0.0267323431549 max: 0.199999581907
deltaT = 0.00169153456351
Time = 8.047145546660165

Inner iteration:  0

Eigen:BiCGSTAB:ILUT: Solving for Ux, Initial residual = 0.0171278264017 Final residual = 1.60632120795e-14, No Iterations 2
Eigen:BiCGSTAB:ILUT: Solving for Uy, Initial residual = 0.219141672109 Final residual = 2.40148686017e-14, No Iterations 2
Eigen:BiCGSTAB:ILUT: Solving for p, Initial residual = 0.000799800553281 Final residual = 3.45071755141e-14, No Iterations 2
time step continuity errors : sum local = 1.74292521153e-15, global = -1.63196507942e-21, cumulative = -5.59542207692e-20
DILUPBiCG:  Solving for thetaxx, Initial residual = 3.8313497096e-05, Final residual = 1.37439649708e-13, No Iterations 2
DILUPBiCG:  Solving for thetaxy, Initial residual = 4.07515119084e-05, Final residual = 9.61654287157e-14, No Iterations 2
DILUPBiCG:  Solving for thetayy, Initial residual = 3.73837604073e-05, Final residual = 8.53903214349e-13, No Iterations 2
DILUPBiCG:  Solving for thetazz, Initial residual = 0, Final residual = 0, No Iterations 0
ExecutionTime = 16.58 s  ClockTime = 53 s

Courant Number mean: 0.0267320121989 max: 0.199999763722
deltaT = 0.00169153656188
Time = 8.048837081223676

Inner iteration:  0

Eigen:BiCGSTAB:ILUT: Solving for Ux, Initial residual = 0.0170319157207 Final residual = 1.71738411474e-14, No Iterations 2
Eigen:BiCGSTAB:ILUT: Solving for Uy, Initial residual = 0.218484495028 Final residual = 2.36970835341e-14, No Iterations 2
Eigen:BiCGSTAB:ILUT: Solving for p, Initial residual = 0.000794488953872 Final residual = 3.3782898879e-14, No Iterations 2
time step continuity errors : sum local = 1.75541435283e-15, global = 7.39027719672e-21, cumulative = -4.85639435724e-20
DILUPBiCG:  Solving for thetaxx, Initial residual = 3.82042427135e-05, Final residual = 1.36811354535e-13, No Iterations 2
DILUPBiCG:  Solving for thetaxy, Initial residual = 4.06277343616e-05, Final residual = 9.56656197922e-14, No Iterations 2
DILUPBiCG:  Solving for thetayy, Initial residual = 3.72429803194e-05, Final residual = 6.56661951848e-13, No Iterations 2
DILUPBiCG:  Solving for thetazz, Initial residual = 0, Final residual = 0, No Iterations 0
ExecutionTime = 16.93 s  ClockTime = 53 s

Courant Number mean: 0.0267315402407 max: 0.199999632777
deltaT = 0.00169153966774
Time = 8.050528617785554

Inner iteration:  0

Eigen:BiCGSTAB:ILUT: Solving for Ux, Initial residual = 0.0169504207763 Final residual = 1.75776909646e-14, No Iterations 2
Eigen:BiCGSTAB:ILUT: Solving for Uy, Initial residual = 0.217591360572 Final residual = 2.35584423215e-14, No Iterations 2
Eigen:BiCGSTAB:ILUT: Solving for p, Initial residual = 0.000789568076077 Final residual = 3.41588331517e-14, No Iterations 2
time step continuity errors : sum local = 1.74465386309e-15, global = -1.06175155345e-20, cumulative = -5.91814591069e-20
DILUPBiCG:  Solving for thetaxx, Initial residual = 3.80913434345e-05, Final residual = 1.36276725625e-13, No Iterations 2
DILUPBiCG:  Solving for thetaxy, Initial residual = 4.05061146172e-05, Final residual = 9.51371160688e-14, No Iterations 2
DILUPBiCG:  Solving for thetayy, Initial residual = 3.70972538634e-05, Final residual = 5.30131308707e-13, No Iterations 2
DILUPBiCG:  Solving for thetazz, Initial residual = 0, Final residual = 0, No Iterations 0
ExecutionTime = 17.28 s  ClockTime = 54 s

Courant Number mean: 0.0267311717737 max: 0.19999978214
deltaT = 0.00169154151034
Time = 8.052220157453291

Inner iteration:  0

Eigen:BiCGSTAB:ILUT: Solving for Ux, Initial residual = 0.0168585914893 Final residual = 1.56613106248e-14, No Iterations 2
Eigen:BiCGSTAB:ILUT: Solving for Uy, Initial residual = 0.216912550054 Final residual = 2.37931249821e-14, No Iterations 2
Eigen:BiCGSTAB:ILUT: Solving for p, Initial residual = 0.000784362956391 Final residual = 3.44491150168e-14, No Iterations 2
time step continuity errors : sum local = 1.7237693328e-15, global = 6.25991036159e-21, cumulative = -5.29215487454e-20
DILUPBiCG:  Solving for thetaxx, Initial residual = 3.79799438932e-05, Final residual = 1.35824739358e-13, No Iterations 2
DILUPBiCG:  Solving for thetaxy, Initial residual = 4.03899210645e-05, Final residual = 9.46046075297e-14, No Iterations 2
DILUPBiCG:  Solving for thetayy, Initial residual = 3.69526686169e-05, Final residual = 4.3752314748e-13, No Iterations 2
DILUPBiCG:  Solving for thetazz, Initial residual = 0, Final residual = 0, No Iterations 0
ExecutionTime = 17.62 s  ClockTime = 54 s

Courant Number mean: 0.0267306840606 max: 0.19999967601
deltaT = 0.00169154425056
Time = 8.053911698963628

Inner iteration:  0

Eigen:BiCGSTAB:ILUT: Solving for Ux, Initial residual = 0.0167783806512 Final residual = 1.5867763957e-14, No Iterations 2
Eigen:BiCGSTAB:ILUT: Solving for Uy, Initial residual = 0.215995169287 Final residual = 2.45691820629e-14, No Iterations 2
Eigen:BiCGSTAB:ILUT: Solving for p, Initial residual = 0.000779504070514 Final residual = 3.48015755466e-14, No Iterations 2
time step continuity errors : sum local = 1.77206921338e-15, global = 6.0198827808e-21, cumulative = -4.69016659646e-20
DILUPBiCG:  Solving for thetaxx, Initial residual = 3.7864720102e-05, Final residual = 1.35343211132e-13, No Iterations 2
DILUPBiCG:  Solving for thetaxy, Initial residual = 4.02746587398e-05, Final residual = 9.40692635421e-14, No Iterations 2
DILUPBiCG:  Solving for thetayy, Initial residual = 3.68061075895e-05, Final residual = 3.72086055751e-13, No Iterations 2
DILUPBiCG:  Solving for thetazz, Initial residual = 0, Final residual = 0, No Iterations 0
ExecutionTime = 17.96 s  ClockTime = 55 s

Courant Number mean: 0.0267302862158 max: 0.199999798653
deltaT = 0.0016915459535
Time = 8.055603243214184

Inner iteration:  0

Eigen:BiCGSTAB:ILUT: Solving for Ux, Initial residual = 0.0166880115594 Final residual = 1.43203865251e-14, No Iterations 2
Eigen:BiCGSTAB:ILUT: Solving for Uy, Initial residual = 0.215290216563 Final residual = 2.38237848308e-14, No Iterations 2
Eigen:BiCGSTAB:ILUT: Solving for p, Initial residual = 0.00077437762075 Final residual = 3.39573713244e-14, No Iterations 2
time step continuity errors : sum local = 1.71421106505e-15, global = 1.37156386992e-20, cumulative = -3.31860272653e-20
DILUPBiCG:  Solving for thetaxx, Initial residual = 3.77510679934e-05, Final residual = 1.34843093624e-13, No Iterations 2
DILUPBiCG:  Solving for thetaxy, Initial residual = 4.01629530645e-05, Final residual = 9.35274107115e-14, No Iterations 2
DILUPBiCG:  Solving for thetayy, Initial residual = 3.66624997819e-05, Final residual = 3.21279522405e-13, No Iterations 2
DILUPBiCG:  Solving for thetazz, Initial residual = 0, Final residual = 0, No Iterations 0
ExecutionTime = 18.3 s  ClockTime = 55 s

Courant Number mean: 0.0267297875262 max: 0.199999712984
deltaT = 0.001691548381
Time = 8.057294789167683

Inner iteration:  0

Eigen:BiCGSTAB:ILUT: Solving for Ux, Initial residual = 0.01660796667 Final residual = 1.58382062667e-14, No Iterations 2
Eigen:BiCGSTAB:ILUT: Solving for Uy, Initial residual = 0.214352983995 Final residual = 2.44033535093e-14, No Iterations 2
Eigen:BiCGSTAB:ILUT: Solving for p, Initial residual = 0.000769559717772 Final residual = 3.4074501347e-14, No Iterations 2
time step continuity errors : sum local = 1.72070507826e-15, global = -8.54201235139e-21, cumulative = -4.17280396167e-20
DILUPBiCG:  Solving for thetaxx, Initial residual = 3.76349149835e-05, Final residual = 1.34343698818e-13, No Iterations 2
DILUPBiCG:  Solving for thetaxy, Initial residual = 4.0051757561e-05, Final residual = 9.29844041298e-14, No Iterations 2
DILUPBiCG:  Solving for thetayy, Initial residual = 3.65184997264e-05, Final residual = 2.8361312519e-13, No Iterations 2
DILUPBiCG:  Solving for thetazz, Initial residual = 0, Final residual = 0, No Iterations 0
ExecutionTime = 18.64 s  ClockTime = 55 s

Courant Number mean: 0.0267293668012 max: 0.199999813308
deltaT = 0.00169154996
Time = 8.058986337548687

Inner iteration:  0

Eigen:BiCGSTAB:ILUT: Solving for Ux, Initial residual = 0.0165185497005 Final residual = 1.65080359785e-14, No Iterations 2
Eigen:BiCGSTAB:ILUT: Solving for Uy, Initial residual = 0.213641788746 Final residual = 2.41827957969e-14, No Iterations 2
Eigen:BiCGSTAB:ILUT: Solving for p, Initial residual = 0.000764502211257 Final residual = 3.41845190249e-14, No Iterations 2
time step continuity errors : sum local = 1.73142865902e-15, global = -7.57990169688e-21, cumulative = -4.93079413136e-20
DILUPBiCG:  Solving for thetaxx, Initial residual = 3.75212004822e-05, Final residual = 1.33846609342e-13, No Iterations 2
DILUPBiCG:  Solving for thetaxy, Initial residual = 3.99494718539e-05, Final residual = 9.24301117615e-14, No Iterations 2
DILUPBiCG:  Solving for thetayy, Initial residual = 3.63797951962e-05, Final residual = 2.53282337373e-13, No Iterations 2
DILUPBiCG:  Solving for thetazz, Initial residual = 0, Final residual = 0, No Iterations 0
ExecutionTime = 18.97 s  ClockTime = 56 s

Courant Number mean: 0.0267288591366 max: 0.199999744577
deltaT = 0.0016915521203
Time = 8.060677887508685

Inner iteration:  0

Eigen:BiCGSTAB:ILUT: Solving for Ux, Initial residual = 0.0164390457037 Final residual = 1.73037441088e-14, No Iterations 2
Eigen:BiCGSTAB:ILUT: Solving for Uy, Initial residual = 0.212702925637 Final residual = 2.48084583491e-14, No Iterations 2
Eigen:BiCGSTAB:ILUT: Solving for p, Initial residual = 0.000759734344594 Final residual = 3.40109359859e-14, No Iterations 2
time step continuity errors : sum local = 1.74909602897e-15, global = -2.42483553954e-21, cumulative = -5.17327768531e-20
DILUPBiCG:  Solving for thetaxx, Initial residual = 3.74083672115e-05, Final residual = 1.33324532286e-13, No Iterations 2
DILUPBiCG:  Solving for thetaxy, Initial residual = 3.98503471769e-05, Final residual = 9.18781300937e-14, No Iterations 2
DILUPBiCG:  Solving for thetayy, Initial residual = 3.6241021964e-05, Final residual = 2.29721622194e-13, No Iterations 2
DILUPBiCG:  Solving for thetazz, Initial residual = 0, Final residual = 0, No Iterations 0
ExecutionTime = 19.32 s  ClockTime = 56 s

Courant Number mean: 0.0267284201888 max: 0.199999826063
deltaT = 0.00169155359142
Time = 8.06236943962899

Inner iteration:  0

Eigen:BiCGSTAB:ILUT: Solving for Ux, Initial residual = 0.0163510590492 Final residual = 1.60547404758e-14, No Iterations 2
Eigen:BiCGSTAB:ILUT: Solving for Uy, Initial residual = 0.211977032194 Final residual = 2.39896608712e-14, No Iterations 2
Eigen:BiCGSTAB:ILUT: Solving for p, Initial residual = 0.00075479628252 Final residual = 3.45559515001e-14, No Iterations 2
time step continuity errors : sum local = 1.73962529225e-15, global = -5.74668746973e-21, cumulative = -5.74794643229e-20
DILUPBiCG:  Solving for thetaxx, Initial residual = 3.72991486345e-05, Final residual = 1.32788804302e-13, No Iterations 2
DILUPBiCG:  Solving for thetaxy, Initial residual = 3.97599372919e-05, Final residual = 9.13343816437e-14, No Iterations 2
DILUPBiCG:  Solving for thetayy, Initial residual = 3.6104305671e-05, Final residual = 2.10219821979e-13, No Iterations 2
DILUPBiCG:  Solving for thetazz, Initial residual = 0, Final residual = 0, No Iterations 0
ExecutionTime = 19.65 s  ClockTime = 56 s

Courant Number mean: 0.0267279060181 max: 0.199999771437
deltaT = 0.00169155552456
Time = 8.064060993220414

Inner iteration:  0

Eigen:BiCGSTAB:ILUT: Solving for Ux, Initial residual = 0.0162722676483 Final residual = 1.86087322533e-14, No Iterations 2
Eigen:BiCGSTAB:ILUT: Solving for Uy, Initial residual = 0.211036046175 Final residual = 2.36187282555e-14, No Iterations 2
Eigen:BiCGSTAB:ILUT: Solving for p, Initial residual = 0.000750240184405 Final residual = 3.35538277695e-14, No Iterations 2
time step continuity errors : sum local = 1.72687769029e-15, global = -4.98009392028e-21, cumulative = -6.24595582431e-20
DILUPBiCG:  Solving for thetaxx, Initial residual = 3.71876664141e-05, Final residual = 1.32230448146e-13, No Iterations 2
DILUPBiCG:  Solving for thetaxy, Initial residual = 3.96761396773e-05, Final residual = 9.08023425991e-14, No Iterations 2
DILUPBiCG:  Solving for thetayy, Initial residual = 3.59683911106e-05, Final residual = 1.94665434692e-13, No Iterations 2
DILUPBiCG:  Solving for thetazz, Initial residual = 0, Final residual = 0, No Iterations 0
ExecutionTime = 19.99 s  ClockTime = 57 s

Courant Number mean: 0.0267274527632 max: 0.199999836913
deltaT = 0.00169155690391
Time = 8.065752548744971

Inner iteration:  0

Eigen:BiCGSTAB:ILUT: Solving for Ux, Initial residual = 0.0161848850165 Final residual = 1.54589774053e-14, No Iterations 2
Eigen:BiCGSTAB:ILUT: Solving for Uy, Initial residual = 0.210302920589 Final residual = 2.40364926587e-14, No Iterations 2
Eigen:BiCGSTAB:ILUT: Solving for p, Initial residual = 0.000745458227732 Final residual = 3.40266939144e-14, No Iterations 2
time step continuity errors : sum local = 1.73517372395e-15, global = 3.240958845e-21, cumulative = -5.92185993981e-20
DILUPBiCG:  Solving for thetaxx, Initial residual = 3.7077843698e-05, Final residual = 1.31701876322e-13, No Iterations 2
DILUPBiCG:  Solving for thetaxy, Initial residual = 3.95952310754e-05, Final residual = 9.02657384009e-14, No Iterations 2
DILUPBiCG:  Solving for thetayy, Initial residual = 3.58332677433e-05, Final residual = 1.81586314198e-13, No Iterations 2
DILUPBiCG:  Solving for thetazz, Initial residual = 0, Final residual = 0, No Iterations 0
ExecutionTime = 20.33 s  ClockTime = 57 s

Courant Number mean: 0.0267269341047 max: 0.199999794133
deltaT = 0.00169155864509
Time = 8.06744410564888

Inner iteration:  0

Eigen:BiCGSTAB:ILUT: Solving for Ux, Initial residual = 0.0161059140643 Final residual = 1.58064717853e-14, No Iterations 2
Eigen:BiCGSTAB:ILUT: Solving for Uy, Initial residual = 0.209380371381 Final residual = 2.41434988933e-14, No Iterations 2
Eigen:BiCGSTAB:ILUT: Solving for p, Initial residual = 0.000740980634163 Final residual = 3.44896848771e-14, No Iterations 2
time step continuity errors : sum local = 1.77204475087e-15, global = -7.20042055423e-21, cumulative = -6.64190199524e-20
DILUPBiCG:  Solving for thetaxx, Initial residual = 3.69690388569e-05, Final residual = 1.31203978274e-13, No Iterations 2
DILUPBiCG:  Solving for thetaxy, Initial residual = 3.95150486214e-05, Final residual = 8.97292012823e-14, No Iterations 2
DILUPBiCG:  Solving for thetayy, Initial residual = 3.56968384929e-05, Final residual = 1.70869579068e-13, No Iterations 2
DILUPBiCG:  Solving for thetazz, Initial residual = 0, Final residual = 0, No Iterations 0
ExecutionTime = 20.68 s  ClockTime = 57 s

Courant Number mean: 0.026726469732 max: 0.199999845954
deltaT = 0.00169155994798
Time = 8.069135664293968

Inner iteration:  0

Eigen:BiCGSTAB:ILUT: Solving for Ux, Initial residual = 0.0160190871916 Final residual = 1.73499848929e-14, No Iterations 2
Eigen:BiCGSTAB:ILUT: Solving for Uy, Initial residual = 0.208659828666 Final residual = 2.3889372446e-14, No Iterations 2
Eigen:BiCGSTAB:ILUT: Solving for p, Initial residual = 0.000736342050892 Final residual = 3.30655528469e-14, No Iterations 2
time step continuity errors : sum local = 1.72378514807e-15, global = -3.87735486504e-21, cumulative = -7.02963748174e-20
DILUPBiCG:  Solving for thetaxx, Initial residual = 3.68632856158e-05, Final residual = 1.30724918096e-13, No Iterations 2
DILUPBiCG:  Solving for thetaxy, Initial residual = 3.94375744743e-05, Final residual = 8.91917154335e-14, No Iterations 2
DILUPBiCG:  Solving for thetayy, Initial residual = 3.55609560653e-05, Final residual = 1.6181189971e-13, No Iterations 2
DILUPBiCG:  Solving for thetazz, Initial residual = 0, Final residual = 0, No Iterations 0
ExecutionTime = 21.04 s  ClockTime = 58 s

Courant Number mean: 0.0267259481592 max: 0.19999981322
deltaT = 0.00169156152772
Time = 8.070827224241944

Inner iteration:  0

Eigen:BiCGSTAB:ILUT: Solving for Ux, Initial residual = 0.0159399922672 Final residual = 1.59669804522e-14, No Iterations 2
Eigen:BiCGSTAB:ILUT: Solving for Uy, Initial residual = 0.207761264344 Final residual = 2.46600597304e-14, No Iterations 2
Eigen:BiCGSTAB:ILUT: Solving for p, Initial residual = 0.00073200128139 Final residual = 3.35917669674e-14, No Iterations 2
time step continuity errors : sum local = 1.75031757735e-15, global = 3.1249829878e-21, cumulative = -6.71713918296e-20
DILUPBiCG:  Solving for thetaxx, Initial residual = 3.6760148708e-05, Final residual = 1.30239865603e-13, No Iterations 2
DILUPBiCG:  Solving for thetaxy, Initial residual = 3.93597591089e-05, Final residual = 8.86549686494e-14, No Iterations 2
DILUPBiCG:  Solving for thetayy, Initial residual = 3.54262299631e-05, Final residual = 1.54326578785e-13, No Iterations 2
DILUPBiCG:  Solving for thetazz, Initial residual = 0, Final residual = 0, No Iterations 0
ExecutionTime = 21.38 s  ClockTime = 58 s

Courant Number mean: 0.0267254758631 max: 0.199999853372
deltaT = 0.00169156276787
Time = 8.072518785769667

Inner iteration:  0

Eigen:BiCGSTAB:ILUT: Solving for Ux, Initial residual = 0.0158533599986 Final residual = 1.48102342531e-14, No Iterations 2
Eigen:BiCGSTAB:ILUT: Solving for Uy, Initial residual = 0.207051242791 Final residual = 2.47496168613e-14, No Iterations 2
Eigen:BiCGSTAB:ILUT: Solving for p, Initial residual = 0.000727454921666 Final residual = 3.45356190862e-14, No Iterations 2
time step continuity errors : sum local = 1.75977172064e-15, global = 6.63765743774e-22, cumulative = -6.65076260858e-20
DILUPBiCG:  Solving for thetaxx, Initial residual = 3.66590570936e-05, Final residual = 1.29755348066e-13, No Iterations 2
DILUPBiCG:  Solving for thetaxy, Initial residual = 3.92840811587e-05, Final residual = 8.81356840104e-14, No Iterations 2
DILUPBiCG:  Solving for thetayy, Initial residual = 3.52947863835e-05, Final residual = 1.47895904239e-13, No Iterations 2
DILUPBiCG:  Solving for thetazz, Initial residual = 0, Final residual = 0, No Iterations 0
ExecutionTime = 21.72 s  ClockTime = 58 s

Courant Number mean: 0.0267249545754 max: 0.199999829239
deltaT = 0.00169156421214
Time = 8.074210348537539

Inner iteration:  0

Eigen:BiCGSTAB:ILUT: Solving for Ux, Initial residual = 0.015774036423 Final residual = 1.45805621064e-14, No Iterations 2
Eigen:BiCGSTAB:ILUT: Solving for Uy, Initial residual = 0.206175762465 Final residual = 2.41362420104e-14, No Iterations 2
Eigen:BiCGSTAB:ILUT: Solving for p, Initial residual = 0.000723151350683 Final residual = 3.37860332341e-14, No Iterations 2
time step continuity errors : sum local = 1.71960788666e-15, global = 1.94214681094e-21, cumulative = -6.45654792749e-20
DILUPBiCG:  Solving for thetaxx, Initial residual = 3.65572869654e-05, Final residual = 1.29236601065e-13, No Iterations 2
DILUPBiCG:  Solving for thetaxy, Initial residual = 3.92108729593e-05, Final residual = 8.76459477707e-14, No Iterations 2
DILUPBiCG:  Solving for thetayy, Initial residual = 3.51623756188e-05, Final residual = 1.42390072298e-13, No Iterations 2
DILUPBiCG:  Solving for thetazz, Initial residual = 0, Final residual = 0, No Iterations 0
ExecutionTime = 22.06 s  ClockTime = 59 s

Courant Number mean: 0.0267244814019 max: 0.199999859408
deltaT = 0.00169156540124
Time = 8.07590191274968

Inner iteration:  0

Eigen:BiCGSTAB:ILUT: Solving for Ux, Initial residual = 0.0156877527178 Final residual = 1.74547647513e-14, No Iterations 2
Eigen:BiCGSTAB:ILUT: Solving for Uy, Initial residual = 0.2054581894 Final residual = 2.45894543005e-14, No Iterations 2
Eigen:BiCGSTAB:ILUT: Solving for p, Initial residual = 0.000718682821839 Final residual = 3.3250181115e-14, No Iterations 2
time step continuity errors : sum local = 1.73196616053e-15, global = 4.08794589875e-21, cumulative = -6.04775333762e-20
DILUPBiCG:  Solving for thetaxx, Initial residual = 3.64625924905e-05, Final residual = 1.2872656336e-13, No Iterations 2
DILUPBiCG:  Solving for thetaxy, Initial residual = 3.91400645569e-05, Final residual = 8.71742337934e-14, No Iterations 2
DILUPBiCG:  Solving for thetayy, Initial residual = 3.50332599304e-05, Final residual = 1.37510785658e-13, No Iterations 2
DILUPBiCG:  Solving for thetazz, Initial residual = 0, Final residual = 0, No Iterations 0
ExecutionTime = 22.4 s  ClockTime = 59 s

Courant Number mean: 0.026723965936 max: 0.199999842711
deltaT = 0.00169156673157
Time = 8.077593478150925

Inner iteration:  0

Eigen:BiCGSTAB:ILUT: Solving for Ux, Initial residual = 0.0156083209385 Final residual = 1.5342148091e-14, No Iterations 2
Eigen:BiCGSTAB:ILUT: Solving for Uy, Initial residual = 0.204565448949 Final residual = 2.49120967506e-14, No Iterations 2
Eigen:BiCGSTAB:ILUT: Solving for p, Initial residual = 0.000714456173521 Final residual = 3.34089437482e-14, No Iterations 2
time step continuity errors : sum local = 1.71104837587e-15, global = -1.0013004846e-20, cumulative = -7.04905382221e-20
DILUPBiCG:  Solving for thetaxx, Initial residual = 3.6377847726e-05, Final residual = 1.28241604291e-13, No Iterations 2
DILUPBiCG:  Solving for thetaxy, Initial residual = 3.9069051281e-05, Final residual = 8.67097271329e-14, No Iterations 2
DILUPBiCG:  Solving for thetayy, Initial residual = 3.49052866163e-05, Final residual = 1.33198429429e-13, No Iterations 2
DILUPBiCG:  Solving for thetazz, Initial residual = 0, Final residual = 0, No Iterations 0
ExecutionTime = 22.75 s  ClockTime = 59 s

Courant Number mean: 0.0267234933893 max: 0.19999986437
deltaT = 0.00169156787871
Time = 8.079285044882496

Inner iteration:  0

Eigen:BiCGSTAB:ILUT: Solving for Ux, Initial residual = 0.0155221407077 Final residual = 1.4867442347e-14, No Iterations 2
Eigen:BiCGSTAB:ILUT: Solving for Uy, Initial residual = 0.203821287514 Final residual = 2.35835422501e-14, No Iterations 2
Eigen:BiCGSTAB:ILUT: Solving for p, Initial residual = 0.000710028232036 Final residual = 3.35807833454e-14, No Iterations 2
time step continuity errors : sum local = 1.72417718632e-15, global = 2.22813168524e-21, cumulative = -6.82624065369e-20
DILUPBiCG:  Solving for thetaxx, Initial residual = 3.62935364041e-05, Final residual = 1.27776706392e-13, No Iterations 2
DILUPBiCG:  Solving for thetaxy, Initial residual = 3.90025458118e-05, Final residual = 8.62524300163e-14, No Iterations 2
DILUPBiCG:  Solving for thetayy, Initial residual = 3.47816439553e-05, Final residual = 1.29240294639e-13, No Iterations 2
DILUPBiCG:  Solving for thetazz, Initial residual = 0, Final residual = 0, No Iterations 0
ExecutionTime = 23.08 s  ClockTime = 60 s

Courant Number mean: 0.0267229853997 max: 0.199999854193
deltaT = 0.00169156911192
Time = 8.080976612761205

Inner iteration:  0

Eigen:BiCGSTAB:ILUT: Solving for Ux, Initial residual = 0.0154428997871 Final residual = 1.54026376028e-14, No Iterations 2
Eigen:BiCGSTAB:ILUT: Solving for Uy, Initial residual = 0.202922241313 Final residual = 2.36183553107e-14, No Iterations 2
Eigen:BiCGSTAB:ILUT: Solving for p, Initial residual = 0.000705815271871 Final residual = 3.36028843028e-14, No Iterations 2
time step continuity errors : sum local = 1.74118019254e-15, global = 5.07130795635e-21, cumulative = -6.31910985805e-20
DILUPBiCG:  Solving for thetaxx, Initial residual = 3.62086159842e-05, Final residual = 1.27301319112e-13, No Iterations 2
DILUPBiCG:  Solving for thetaxy, Initial residual = 3.89513990151e-05, Final residual = 8.58111655623e-14, No Iterations 2
DILUPBiCG:  Solving for thetayy, Initial residual = 3.46581187035e-05, Final residual = 1.25698736618e-13, No Iterations 2
DILUPBiCG:  Solving for thetazz, Initial residual = 0, Final residual = 0, No Iterations 0
ExecutionTime = 23.42 s  ClockTime = 60 s

Courant Number mean: 0.0267225150635 max: 0.199999868569
deltaT = 0.00169157022354
Time = 8.082668181873125

Inner iteration:  0

Eigen:BiCGSTAB:ILUT: Solving for Ux, Initial residual = 0.0153590705476 Final residual = 1.53110317185e-14, No Iterations 2
Eigen:BiCGSTAB:ILUT: Solving for Uy, Initial residual = 0.202161258085 Final residual = 2.43335159362e-14, No Iterations 2
Eigen:BiCGSTAB:ILUT: Solving for p, Initial residual = 0.000701411865597 Final residual = 3.45571112114e-14, No Iterations 2
time step continuity errors : sum local = 1.7952039343e-15, global = 1.38074741284e-20, cumulative = -4.93836244521e-20
DILUPBiCG:  Solving for thetaxx, Initial residual = 3.61324093293e-05, Final residual = 1.26843780377e-13, No Iterations 2
DILUPBiCG:  Solving for thetaxy, Initial residual = 3.89014898666e-05, Final residual = 8.53895017145e-14, No Iterations 2
DILUPBiCG:  Solving for thetayy, Initial residual = 3.45360875792e-05, Final residual = 1.22526205529e-13, No Iterations 2
DILUPBiCG:  Solving for thetazz, Initial residual = 0, Final residual = 0, No Iterations 0
ExecutionTime = 23.76 s  ClockTime = 60 s

Courant Number mean: 0.0267220176164 max: 0.199999864065
deltaT = 0.00169157137326
Time = 8.084359752096667

Inner iteration:  0

Eigen:BiCGSTAB:ILUT: Solving for Ux, Initial residual = 0.015282949773 Final residual = 1.45586230691e-14, No Iterations 2
Eigen:BiCGSTAB:ILUT: Solving for Uy, Initial residual = 0.201252818512 Final residual = 2.42207667934e-14, No Iterations 2
Eigen:BiCGSTAB:ILUT: Solving for p, Initial residual = 0.000697232076598 Final residual = 3.37206894394e-14, No Iterations 2
time step continuity errors : sum local = 1.71136408334e-15, global = 8.30496371497e-21, cumulative = -4.10786607371e-20
DILUPBiCG:  Solving for thetaxx, Initial residual = 3.60560897655e-05, Final residual = 1.26367234862e-13, No Iterations 2
DILUPBiCG:  Solving for thetaxy, Initial residual = 3.8851448238e-05, Final residual = 8.50120090162e-14, No Iterations 2
DILUPBiCG:  Solving for thetayy, Initial residual = 3.44140592886e-05, Final residual = 1.19678107683e-13, No Iterations 2
DILUPBiCG:  Solving for thetazz, Initial residual = 0, Final residual = 0, No Iterations 0
ExecutionTime = 24.11 s  ClockTime = 61 s

Courant Number mean: 0.026721555282 max: 0.199999872147
deltaT = 0.00169157245462
Time = 8.086051323469928

Inner iteration:  0

Eigen:BiCGSTAB:ILUT: Solving for Ux, Initial residual = 0.0152006563925 Final residual = 1.49493278915e-14, No Iterations 2
Eigen:BiCGSTAB:ILUT: Solving for Uy, Initial residual = 0.200472516506 Final residual = 2.44676095214e-14, No Iterations 2
Eigen:BiCGSTAB:ILUT: Solving for p, Initial residual = 0.000692925959123 Final residual = 3.34961575067e-14, No Iterations 2
time step continuity errors : sum local = 1.71726341212e-15, global = -9.22967368376e-21, cumulative = -5.03083344209e-20
DILUPBiCG:  Solving for thetaxx, Initial residual = 3.59890449763e-05, Final residual = 1.25905704366e-13, No Iterations 2
DILUPBiCG:  Solving for thetaxy, Initial residual = 3.88133179034e-05, Final residual = 8.4660819086e-14, No Iterations 2
DILUPBiCG:  Solving for thetayy, Initial residual = 3.4293116064e-05, Final residual = 1.17126446458e-13, No Iterations 2
DILUPBiCG:  Solving for thetazz, Initial residual = 0, Final residual = 0, No Iterations 0
ExecutionTime = 24.46 s  ClockTime = 61 s

Courant Number mean: 0.0267210658682 max: 0.199999872563
deltaT = 0.00169157353247
Time = 8.087742895924549

Inner iteration:  0

Eigen:BiCGSTAB:ILUT: Solving for Ux, Initial residual = 0.0151245502956 Final residual = 1.65411094085e-14, No Iterations 2
Eigen:BiCGSTAB:ILUT: Solving for Uy, Initial residual = 0.199552367355 Final residual = 2.50023086392e-14, No Iterations 2
Eigen:BiCGSTAB:ILUT: Solving for p, Initial residual = 0.000688846601574 Final residual = 3.31728549957e-14, No Iterations 2
time step continuity errors : sum local = 1.72726832887e-15, global = -1.35294447946e-21, cumulative = -5.16612789004e-20
DILUPBiCG:  Solving for thetaxx, Initial residual = 3.59343501956e-05, Final residual = 1.25441396468e-13, No Iterations 2
DILUPBiCG:  Solving for thetaxy, Initial residual = 3.87809827542e-05, Final residual = 8.43164173131e-14, No Iterations 2
DILUPBiCG:  Solving for thetayy, Initial residual = 3.41735178176e-05, Final residual = 1.14839771471e-13, No Iterations 2
DILUPBiCG:  Solving for thetazz, Initial residual = 0, Final residual = 0, No Iterations 0
ExecutionTime = 24.8 s  ClockTime = 61 s

Courant Number mean: 0.0267206060906 max: 0.199999875163
deltaT = 0.00169157458833
Time = 8.089434469457018

Inner iteration:  0

Eigen:BiCGSTAB:ILUT: Solving for Ux, Initial residual = 0.0150424019077 Final residual = 1.66209193027e-14, No Iterations 2
Eigen:BiCGSTAB:ILUT: Solving for Uy, Initial residual = 0.198751594764 Final residual = 2.39347345702e-14, No Iterations 2
Eigen:BiCGSTAB:ILUT: Solving for p, Initial residual = 0.000684588052741 Final residual = 3.34396085764e-14, No Iterations 2
time step continuity errors : sum local = 1.74615359782e-15, global = 3.66712777199e-21, cumulative = -4.79941511284e-20
DILUPBiCG:  Solving for thetaxx, Initial residual = 3.58920092409e-05, Final residual = 1.25009930753e-13, No Iterations 2
DILUPBiCG:  Solving for thetaxy, Initial residual = 3.87560854503e-05, Final residual = 8.40095894805e-14, No Iterations 2
DILUPBiCG:  Solving for thetayy, Initial residual = 3.40604291889e-05, Final residual = 1.12778092783e-13, No Iterations 2
DILUPBiCG:  Solving for thetazz, Initial residual = 0, Final residual = 0, No Iterations 0
ExecutionTime = 25.13 s  ClockTime = 62 s

Courant Number mean: 0.026720122641 max: 0.199999879831
deltaT = 0.0016915756047
Time = 8.091126044045344

Inner iteration:  0

Eigen:BiCGSTAB:ILUT: Solving for Ux, Initial residual = 0.0149660931404 Final residual = 1.68238644913e-14, No Iterations 2
Eigen:BiCGSTAB:ILUT: Solving for Uy, Initial residual = 0.197813296078 Final residual = 2.41897258899e-14, No Iterations 2
Eigen:BiCGSTAB:ILUT: Solving for p, Initial residual = 0.000680545359925 Final residual = 3.38014208994e-14, No Iterations 2
time step continuity errors : sum local = 1.76304278935e-15, global = 5.69730756795e-22, cumulative = -4.74244203716e-20
DILUPBiCG:  Solving for thetaxx, Initial residual = 3.58563161465e-05, Final residual = 1.24577062337e-13, No Iterations 2
DILUPBiCG:  Solving for thetaxy, Initial residual = 3.87323740592e-05, Final residual = 8.3703255908e-14, No Iterations 2
DILUPBiCG:  Solving for thetayy, Initial residual = 3.39515124987e-05, Final residual = 1.10880365641e-13, No Iterations 2
DILUPBiCG:  Solving for thetazz, Initial residual = 0, Final residual = 0, No Iterations 0
ExecutionTime = 25.47 s  ClockTime = 62 s

Courant Number mean: 0.0267196745675 max: 0.199999877625
deltaT = 0.00169157663973
Time = 8.092817619650045

Inner iteration:  0

Eigen:BiCGSTAB:ILUT: Solving for Ux, Initial residual = 0.0148839564268 Final residual = 1.78490741443e-14, No Iterations 2
Eigen:BiCGSTAB:ILUT: Solving for Uy, Initial residual = 0.196994356117 Final residual = 2.43862570184e-14, No Iterations 2
Eigen:BiCGSTAB:ILUT: Solving for p, Initial residual = 0.000676358689051 Final residual = 3.37611954071e-14, No Iterations 2
time step continuity errors : sum local = 1.82798786149e-15, global = 5.94103616981e-21, cumulative = -4.14833842018e-20
DILUPBiCG:  Solving for thetaxx, Initial residual = 3.5818629336e-05, Final residual = 1.24155984646e-13, No Iterations 2
DILUPBiCG:  Solving for thetaxy, Initial residual = 3.87100319547e-05, Final residual = 8.33964150917e-14, No Iterations 2
DILUPBiCG:  Solving for thetayy, Initial residual = 3.38508044863e-05, Final residual = 1.09129745665e-13, No Iterations 2
DILUPBiCG:  Solving for thetazz, Initial residual = 0, Final residual = 0, No Iterations 0
ExecutionTime = 25.82 s  ClockTime = 62 s

Courant Number mean: 0.0267192117922 max: 0.199999885952
deltaT = 0.00169157760434
Time = 8.094509196289778

Inner iteration:  0

Eigen:BiCGSTAB:ILUT: Solving for Ux, Initial residual = 0.0148074626624 Final residual = 1.63109105216e-14, No Iterations 2
Eigen:BiCGSTAB:ILUT: Solving for Uy, Initial residual = 0.196049914727 Final residual = 2.52127024532e-14, No Iterations 2
Eigen:BiCGSTAB:ILUT: Solving for p, Initial residual = 0.000672378814473 Final residual = 3.25621280179e-14, No Iterations 2
time step continuity errors : sum local = 1.70953885382e-15, global = 5.94189589263e-21, cumulative = -3.55414883091e-20
DILUPBiCG:  Solving for thetaxx, Initial residual = 3.57780162952e-05, Final residual = 1.23735279506e-13, No Iterations 2
DILUPBiCG:  Solving for thetaxy, Initial residual = 3.86888643715e-05, Final residual = 8.3087128746e-14, No Iterations 2
DILUPBiCG:  Solving for thetayy, Initial residual = 3.37539088097e-05, Final residual = 1.07494566553e-13, No Iterations 2
DILUPBiCG:  Solving for thetazz, Initial residual = 0, Final residual = 0, No Iterations 0
ExecutionTime = 26.16 s  ClockTime = 63 s

Courant Number mean: 0.0267187729372 max: 0.199999879509
deltaT = 0.00169157862344
Time = 8.096200773894116

Inner iteration:  0

Eigen:BiCGSTAB:ILUT: Solving for Ux, Initial residual = 0.0147256060588 Final residual = 1.59386500365e-14, No Iterations 2
Eigen:BiCGSTAB:ILUT: Solving for Uy, Initial residual = 0.195222365248 Final residual = 2.47905106263e-14, No Iterations 2
Eigen:BiCGSTAB:ILUT: Solving for p, Initial residual = 0.000668220152491 Final residual = 3.39204625219e-14, No Iterations 2
time step continuity errors : sum local = 1.71157944777e-15, global = 1.65778720468e-21, cumulative = -3.38837011045e-20
DILUPBiCG:  Solving for thetaxx, Initial residual = 3.57425723996e-05, Final residual = 1.23328441908e-13, No Iterations 2
DILUPBiCG:  Solving for thetaxy, Initial residual = 3.86652607264e-05, Final residual = 8.27858713055e-14, No Iterations 2
DILUPBiCG:  Solving for thetayy, Initial residual = 3.36704425686e-05, Final residual = 1.05999902556e-13, No Iterations 2
DILUPBiCG:  Solving for thetazz, Initial residual = 0, Final residual = 0, No Iterations 0
ExecutionTime = 26.5 s  ClockTime = 63 s

Courant Number mean: 0.0267183176066 max: 0.199999890968
deltaT = 0.00169157954562
Time = 8.097892352517558

Inner iteration:  0

Eigen:BiCGSTAB:ILUT: Solving for Ux, Initial residual = 0.0146503688857 Final residual = 1.57757194539e-14, No Iterations 2
Eigen:BiCGSTAB:ILUT: Solving for Uy, Initial residual = 0.194274892508 Final residual = 2.40901080358e-14, No Iterations 2
Eigen:BiCGSTAB:ILUT: Solving for p, Initial residual = 0.000664269812467 Final residual = 3.3253973557e-14, No Iterations 2
time step continuity errors : sum local = 1.69450412734e-15, global = 5.32529602707e-21, cumulative = -2.85584050774e-20
DILUPBiCG:  Solving for thetaxx, Initial residual = 3.57064833973e-05, Final residual = 1.22896302981e-13, No Iterations 2
DILUPBiCG:  Solving for thetaxy, Initial residual = 3.86382421823e-05, Final residual = 8.24804547724e-14, No Iterations 2
DILUPBiCG:  Solving for thetayy, Initial residual = 3.35941701525e-05, Final residual = 1.04629491752e-13, No Iterations 2
DILUPBiCG:  Solving for thetazz, Initial residual = 0, Final residual = 0, No Iterations 0
ExecutionTime = 26.85 s  ClockTime = 63 s

Courant Number mean: 0.0267178826191 max: 0.19999988077
deltaT = 0.00169158055405
Time = 8.099583932063178

Inner iteration:  0

Eigen:BiCGSTAB:ILUT: Solving for Ux, Initial residual = 0.0145702410126 Final residual = 1.65589302568e-14, No Iterations 2
Eigen:BiCGSTAB:ILUT: Solving for Uy, Initial residual = 0.193459572496 Final residual = 2.45398053611e-14, No Iterations 2
Eigen:BiCGSTAB:ILUT: Solving for p, Initial residual = 0.000660152499387 Final residual = 3.32729520706e-14, No Iterations 2
time step continuity errors : sum local = 1.74709257279e-15, global = 2.95127697697e-21, cumulative = -2.56071281004e-20
DILUPBiCG:  Solving for thetaxx, Initial residual = 3.56709622304e-05, Final residual = 1.22470967969e-13, No Iterations 2
DILUPBiCG:  Solving for thetaxy, Initial residual = 3.86173227423e-05, Final residual = 8.21868745225e-14, No Iterations 2
DILUPBiCG:  Solving for thetayy, Initial residual = 3.35299245709e-05, Final residual = 1.0339479658e-13, No Iterations 2
DILUPBiCG:  Solving for thetazz, Initial residual = 0, Final residual = 0, No Iterations 0
ExecutionTime = 27.2 s  ClockTime = 64 s

Courant Number mean: 0.0267174334619 max: 0.199999894888
deltaT = 0.00169158144308
Time = 8.101275512617232

Inner iteration:  0

Eigen:BiCGSTAB:ILUT: Solving for Ux, Initial residual = 0.0144954663737 Final residual = 1.56359985184e-14, No Iterations 2
Eigen:BiCGSTAB:ILUT: Solving for Uy, Initial residual = 0.192555980091 Final residual = 2.45526259034e-14, No Iterations 2
Eigen:BiCGSTAB:ILUT: Solving for p, Initial residual = 0.000656297692093 Final residual = 3.29579521293e-14, No Iterations 2
time step continuity errors : sum local = 1.72733711824e-15, global = 1.00980763744e-20, cumulative = -1.55090517261e-20
DILUPBiCG:  Solving for thetaxx, Initial residual = 3.56375759699e-05, Final residual = 1.22028336051e-13, No Iterations 2
DILUPBiCG:  Solving for thetaxy, Initial residual = 3.86035521311e-05, Final residual = 8.18913087165e-14, No Iterations 2
DILUPBiCG:  Solving for thetayy, Initial residual = 3.34657669171e-05, Final residual = 1.02242524404e-13, No Iterations 2
DILUPBiCG:  Solving for thetazz, Initial residual = 0, Final residual = 0, No Iterations 0
ExecutionTime = 27.54 s  ClockTime = 64 s

Courant Number mean: 0.0267170025731 max: 0.199999881326
deltaT = 0.00169158244682
Time = 8.102967094060313

Inner iteration:  0

Eigen:BiCGSTAB:ILUT: Solving for Ux, Initial residual = 0.0144152744356 Final residual = 1.70620301243e-14, No Iterations 2
Eigen:BiCGSTAB:ILUT: Solving for Uy, Initial residual = 0.191745738527 Final residual = 2.41611929642e-14, No Iterations 2
Eigen:BiCGSTAB:ILUT: Solving for p, Initial residual = 0.000652270662784 Final residual = 3.35861009463e-14, No Iterations 2
time step continuity errors : sum local = 1.77652942448e-15, global = 1.72236327323e-21, cumulative = -1.37866884528e-20
DILUPBiCG:  Solving for thetaxx, Initial residual = 3.5603306173e-05, Final residual = 1.21588586662e-13, No Iterations 2
DILUPBiCG:  Solving for thetaxy, Initial residual = 3.85949690437e-05, Final residual = 8.16093713388e-14, No Iterations 2
DILUPBiCG:  Solving for thetayy, Initial residual = 3.34065348751e-05, Final residual = 1.01188431336e-13, No Iterations 2
DILUPBiCG:  Solving for thetazz, Initial residual = 0, Final residual = 0, No Iterations 0
ExecutionTime = 27.87 s  ClockTime = 65 s

Courant Number mean: 0.026716559907 max: 0.199999897671
deltaT = 0.00169158331231
Time = 8.104658676507128

Inner iteration:  0

Eigen:BiCGSTAB:ILUT: Solving for Ux, Initial residual = 0.014340441122 Final residual = 1.603620027e-14, No Iterations 2
Eigen:BiCGSTAB:ILUT: Solving for Uy, Initial residual = 0.190829830309 Final residual = 2.45614413445e-14, No Iterations 2
Eigen:BiCGSTAB:ILUT: Solving for p, Initial residual = 0.000648449378828 Final residual = 3.28744189197e-14, No Iterations 2
time step continuity errors : sum local = 1.6829992835e-15, global = -2.74899015261e-21, cumulative = -1.65356786054e-20
DILUPBiCG:  Solving for thetaxx, Initial residual = 3.55678069765e-05, Final residual = 1.21132644731e-13, No Iterations 2
DILUPBiCG:  Solving for thetaxy, Initial residual = 3.85889217915e-05, Final residual = 8.13285469205e-14, No Iterations 2
DILUPBiCG:  Solving for thetayy, Initial residual = 3.33480836053e-05, Final residual = 1.00187610327e-13, No Iterations 2
DILUPBiCG:  Solving for thetazz, Initial residual = 0, Final residual = 0, No Iterations 0
ExecutionTime = 28.22 s  ClockTime = 65 s

Courant Number mean: 0.0267161349193 max: 0.199999881085
deltaT = 0.00169158431809
Time = 8.106350259819436

Inner iteration:  0

Eigen:BiCGSTAB:ILUT: Solving for Ux, Initial residual = 0.014260284354 Final residual = 1.787034973e-14, No Iterations 2
Eigen:BiCGSTAB:ILUT: Solving for Uy, Initial residual = 0.190008200968 Final residual = 2.44306422144e-14, No Iterations 2
Eigen:BiCGSTAB:ILUT: Solving for p, Initial residual = 0.000644447113683 Final residual = 3.28206342115e-14, No Iterations 2
time step continuity errors : sum local = 1.77927129154e-15, global = 2.22842199435e-21, cumulative = -1.43072566111e-20
DILUPBiCG:  Solving for thetaxx, Initial residual = 3.55322457902e-05, Final residual = 1.2068471378e-13, No Iterations 2
DILUPBiCG:  Solving for thetaxy, Initial residual = 3.85824484038e-05, Final residual = 8.1051027343e-14, No Iterations 2
DILUPBiCG:  Solving for thetayy, Initial residual = 3.32954940601e-05, Final residual = 9.92391118049e-14, No Iterations 2
DILUPBiCG:  Solving for thetazz, Initial residual = 0, Final residual = 0, No Iterations 0
ExecutionTime = 28.56 s  ClockTime = 65 s

Courant Number mean: 0.0267157015675 max: 0.199999899279
deltaT = 0.00169158516998
Time = 8.108041844137521

Inner iteration:  0

Eigen:BiCGSTAB:ILUT: Solving for Ux, Initial residual = 0.0141852526687 Final residual = 1.62289575611e-14, No Iterations 2
Eigen:BiCGSTAB:ILUT: Solving for Uy, Initial residual = 0.189084104548 Final residual = 2.42649436699e-14, No Iterations 2
Eigen:BiCGSTAB:ILUT: Solving for p, Initial residual = 0.000640646403112 Final residual = 3.31741036486e-14, No Iterations 2
time step continuity errors : sum local = 1.73879141581e-15, global = -1.01684807193e-20, cumulative = -2.44757373303e-20
DILUPBiCG:  Solving for thetaxx, Initial residual = 3.54954080249e-05, Final residual = 1.20196738199e-13, No Iterations 2
DILUPBiCG:  Solving for thetaxy, Initial residual = 3.85746981979e-05, Final residual = 8.07729656402e-14, No Iterations 2
DILUPBiCG:  Solving for thetayy, Initial residual = 3.32441805929e-05, Final residual = 9.83020940154e-14, No Iterations 2
DILUPBiCG:  Solving for thetazz, Initial residual = 0, Final residual = 0, No Iterations 0
ExecutionTime = 28.9 s  ClockTime = 66 s

Courant Number mean: 0.0267152852215 max: 0.199999879969
deltaT = 0.00169158618519
Time = 8.109733429307498

Inner iteration:  0

Eigen:BiCGSTAB:ILUT: Solving for Ux, Initial residual = 0.0141050322434 Final residual = 1.77428994105e-14, No Iterations 2
Eigen:BiCGSTAB:ILUT: Solving for Uy, Initial residual = 0.188250035802 Final residual = 2.45695181619e-14, No Iterations 2
Eigen:BiCGSTAB:ILUT: Solving for p, Initial residual = 0.000636705707542 Final residual = 3.20950456299e-14, No Iterations 2
time step continuity errors : sum local = 1.70722850556e-15, global = 3.62146468985e-21, cumulative = -2.08542726405e-20
DILUPBiCG:  Solving for thetaxx, Initial residual = 3.54592007429e-05, Final residual = 1.1969990782e-13, No Iterations 2
DILUPBiCG:  Solving for thetaxy, Initial residual = 3.85664257777e-05, Final residual = 8.04952551194e-14, No Iterations 2
DILUPBiCG:  Solving for thetayy, Initial residual = 3.31947007402e-05, Final residual = 9.74253870314e-14, No Iterations 2
DILUPBiCG:  Solving for thetazz, Initial residual = 0, Final residual = 0, No Iterations 0
ExecutionTime = 29.24 s  ClockTime = 66 s

Courant Number mean: 0.0267148606499 max: 0.199999899697
deltaT = 0.00169158703355
Time = 8.11142501549269

Inner iteration:  0

Eigen:BiCGSTAB:ILUT: Solving for Ux, Initial residual = 0.014029779562 Final residual = 1.8627683148e-14, No Iterations 2
Eigen:BiCGSTAB:ILUT: Solving for Uy, Initial residual = 0.187316910841 Final residual = 2.39565747528e-14, No Iterations 2
Eigen:BiCGSTAB:ILUT: Solving for p, Initial residual = 0.00063304359809 Final residual = 3.31213401298e-14, No Iterations 2
time step continuity errors : sum local = 1.73359859075e-15, global = 2.86281662919e-21, cumulative = -1.79914560113e-20
DILUPBiCG:  Solving for thetaxx, Initial residual = 3.54225269556e-05, Final residual = 1.19189897503e-13, No Iterations 2
DILUPBiCG:  Solving for thetaxy, Initial residual = 3.85569596875e-05, Final residual = 8.02199981577e-14, No Iterations 2
DILUPBiCG:  Solving for thetayy, Initial residual = 3.31459553289e-05, Final residual = 9.66071592045e-14, No Iterations 2
DILUPBiCG:  Solving for thetazz, Initial residual = 0, Final residual = 0, No Iterations 0
ExecutionTime = 29.6 s  ClockTime = 66 s

Courant Number mean: 0.02671445173 max: 0.199999877952
deltaT = 0.00169158806582
Time = 8.113116602526237

Inner iteration:  0

Eigen:BiCGSTAB:ILUT: Solving for Ux, Initial residual = 0.0139493295999 Final residual = 1.67859218149e-14, No Iterations 2
Eigen:BiCGSTAB:ILUT: Solving for Uy, Initial residual = 0.186468673972 Final residual = 2.45677334825e-14, No Iterations 2
Eigen:BiCGSTAB:ILUT: Solving for p, Initial residual = 0.000629226675211 Final residual = 3.35102067887e-14, No Iterations 2
time step continuity errors : sum local = 1.7314697269e-15, global = 1.39602834132e-20, cumulative = -4.03117259814e-21
DILUPBiCG:  Solving for thetaxx, Initial residual = 3.53853367364e-05, Final residual = 1.18687225031e-13, No Iterations 2
DILUPBiCG:  Solving for thetaxy, Initial residual = 3.85459670661e-05, Final residual = 7.99580558804e-14, No Iterations 2
DILUPBiCG:  Solving for thetayy, Initial residual = 3.30985922677e-05, Final residual = 9.58519994211e-14, No Iterations 2
DILUPBiCG:  Solving for thetazz, Initial residual = 0, Final residual = 0, No Iterations 0
ExecutionTime = 29.93 s  ClockTime = 67 s

Courant Number mean: 0.0267140374583 max: 0.199999898941
deltaT = 0.00169158892057
Time = 8.114808190592059

Inner iteration:  0

Eigen:BiCGSTAB:ILUT: Solving for Ux, Initial residual = 0.0138737769796 Final residual = 1.75004806087e-14, No Iterations 2
Eigen:BiCGSTAB:ILUT: Solving for Uy, Initial residual = 0.185514264473 Final residual = 2.50068930389e-14, No Iterations 2
Eigen:BiCGSTAB:ILUT: Solving for p, Initial residual = 0.000625673558386 Final residual = 3.2888277501e-14, No Iterations 2
time step continuity errors : sum local = 1.70208397257e-15, global = -1.28210438639e-22, cumulative = -4.15938303677e-21
DILUPBiCG:  Solving for thetaxx, Initial residual = 3.53469109804e-05, Final residual = 1.18171391719e-13, No Iterations 2
DILUPBiCG:  Solving for thetaxy, Initial residual = 3.85445183396e-05, Final residual = 7.96946070017e-14, No Iterations 2
DILUPBiCG:  Solving for thetayy, Initial residual = 3.30500693323e-05, Final residual = 9.51373460502e-14, No Iterations 2
DILUPBiCG:  Solving for thetazz, Initial residual = 0, Final residual = 0, No Iterations 0
ExecutionTime = 30.27 s  ClockTime = 67 s

[...]
Eigen:BiCGSTAB:ILUT: Solving for p, Initial residual = 0.000503436743741 Final residual = 4.1926163586e-14, No Iterations 2
time step continuity errors : sum local = 1.6615125808e-15, global = 6.11718409716e-21, cumulative = 1.76198670721e-19
DILUPBiCG:  Solving for thetaxx, Initial residual = 1.48742528943e-05, Final residual = 7.8542908081e-11, No Iterations 1
DILUPBiCG:  Solving for thetaxy, Initial residual = 2.34107404964e-05, Final residual = 7.92773384066e-11, No Iterations 1
DILUPBiCG:  Solving for thetayy, Initial residual = 1.39372839778e-05, Final residual = 8.25722236509e-15, No Iterations 2
DILUPBiCG:  Solving for thetazz, Initial residual = 0, Final residual = 0, No Iterations 0
ExecutionTime = 956.3 s  ClockTime = 2088 s

Courant Number mean: 0.0265858870694 max: 0.199999965398
deltaT = 0.00169051290325
Time = 11.9726601799623484

Inner iteration:  0

Eigen:BiCGSTAB:ILUT: Solving for Ux, Initial residual = 0.00927201893265 Final residual = 1.61174472129e-14, No Iterations 2
Eigen:BiCGSTAB:ILUT: Solving for Uy, Initial residual = 0.121099283547 Final residual = 2.51819779578e-14, No Iterations 2
Eigen:BiCGSTAB:ILUT: Solving for p, Initial residual = 0.000502359175564 Final residual = 4.33474869815e-14, No Iterations 2
time step continuity errors : sum local = 1.70999131854e-15, global = 6.25573461462e-21, cumulative = 1.82454405335e-19
DILUPBiCG:  Solving for thetaxx, Initial residual = 1.48795122291e-05, Final residual = 7.83126188171e-11, No Iterations 1
DILUPBiCG:  Solving for thetaxy, Initial residual = 2.3421107757e-05, Final residual = 7.94769666486e-11, No Iterations 1
DILUPBiCG:  Solving for thetayy, Initial residual = 1.39422556553e-05, Final residual = 8.27301150286e-15, No Iterations 2
DILUPBiCG:  Solving for thetazz, Initial residual = 0, Final residual = 0, No Iterations 0
ExecutionTime = 956.69 s  ClockTime = 2089 s

Courant Number mean: 0.0265857745887 max: 0.199999963023
deltaT = 0.0016905132158
Time = 11.9743506928655954

Inner iteration:  0

Eigen:BiCGSTAB:ILUT: Solving for Ux, Initial residual = 0.00924820316543 Final residual = 1.76956916451e-14, No Iterations 2
Eigen:BiCGSTAB:ILUT: Solving for Uy, Initial residual = 0.120835777914 Final residual = 2.61525012064e-14, No Iterations 2
Eigen:BiCGSTAB:ILUT: Solving for p, Initial residual = 0.000501285408538 Final residual = 4.23014945177e-14, No Iterations 2
time step continuity errors : sum local = 1.70462474492e-15, global = -1.91309598406e-21, cumulative = 1.80541309351e-19
DILUPBiCG:  Solving for thetaxx, Initial residual = 1.48843037642e-05, Final residual = 7.80763656267e-11, No Iterations 1
DILUPBiCG:  Solving for thetaxy, Initial residual = 2.34330762775e-05, Final residual = 7.96796708813e-11, No Iterations 1
DILUPBiCG:  Solving for thetayy, Initial residual = 1.39470335163e-05, Final residual = 8.2892231647e-15, No Iterations 2
DILUPBiCG:  Solving for thetazz, Initial residual = 0, Final residual = 0, No Iterations 0
ExecutionTime = 957.07 s  ClockTime = 2089 s

Courant Number mean: 0.0265856610931 max: 0.199999965511
deltaT = 0.00169051350732
Time = 11.9760412060813941

Inner iteration:  0

Eigen:BiCGSTAB:ILUT: Solving for Ux, Initial residual = 0.00922706354039 Final residual = 1.90955784279e-14, No Iterations 2
Eigen:BiCGSTAB:ILUT: Solving for Uy, Initial residual = 0.12057443413 Final residual = 2.630893186e-14, No Iterations 2
Eigen:BiCGSTAB:ILUT: Solving for p, Initial residual = 0.000500161531773 Final residual = 4.21608355774e-14, No Iterations 2
time step continuity errors : sum local = 1.72954546163e-15, global = 1.90284353846e-21, cumulative = 1.8244415289e-19
DILUPBiCG:  Solving for thetaxx, Initial residual = 1.48903765607e-05, Final residual = 7.78383978864e-11, No Iterations 1
DILUPBiCG:  Solving for thetaxy, Initial residual = 2.34457506036e-05, Final residual = 7.98940529098e-11, No Iterations 1
DILUPBiCG:  Solving for thetayy, Initial residual = 1.39513577237e-05, Final residual = 8.30617246466e-15, No Iterations 2
DILUPBiCG:  Solving for thetazz, Initial residual = 0, Final residual = 0, No Iterations 0
ExecutionTime = 957.44 s  ClockTime = 2089 s

Courant Number mean: 0.0265855464449 max: 0.199999963113
deltaT = 0.00169051381911
Time = 11.9777317195887143

Inner iteration:  0

Eigen:BiCGSTAB:ILUT: Solving for Ux, Initial residual = 0.00921048274911 Final residual = 1.57754097436e-14, No Iterations 2
Eigen:BiCGSTAB:ILUT: Solving for Uy, Initial residual = 0.120302728564 Final residual = 2.59953579027e-14, No Iterations 2
Eigen:BiCGSTAB:ILUT: Solving for p, Initial residual = 0.000499065229358 Final residual = 4.22751691295e-14, No Iterations 2
time step continuity errors : sum local = 1.67839663144e-15, global = -8.60507272962e-21, cumulative = 1.7383908016e-19
DILUPBiCG:  Solving for thetaxx, Initial residual = 1.48980247838e-05, Final residual = 7.75976955229e-11, No Iterations 1
DILUPBiCG:  Solving for thetaxy, Initial residual = 2.3458006782e-05, Final residual = 8.0112285239e-11, No Iterations 1
DILUPBiCG:  Solving for thetayy, Initial residual = 1.39529685389e-05, Final residual = 8.3230886245e-15, No Iterations 2
DILUPBiCG:  Solving for thetazz, Initial residual = 0, Final residual = 0, No Iterations 0
ExecutionTime = 957.85 s  ClockTime = 2090 s

Courant Number mean: 0.0265854327201 max: 0.199999965602
deltaT = 0.00169051410986
Time = 11.9794222334078242

Inner iteration:  0

Eigen:BiCGSTAB:ILUT: Solving for Ux, Initial residual = 0.00919382301665 Final residual = 1.67630342325e-14, No Iterations 2
Eigen:BiCGSTAB:ILUT: Solving for Uy, Initial residual = 0.120030520794 Final residual = 2.57613676275e-14, No Iterations 2
Eigen:BiCGSTAB:ILUT: Solving for p, Initial residual = 0.000497926741822 Final residual = 4.23696312196e-14, No Iterations 2
time step continuity errors : sum local = 1.75675898121e-15, global = 2.6409716017e-21, cumulative = 1.76480051762e-19
DILUPBiCG:  Solving for thetaxx, Initial residual = 1.49066656446e-05, Final residual = 7.73489965972e-11, No Iterations 1
DILUPBiCG:  Solving for thetaxy, Initial residual = 2.34696596591e-05, Final residual = 8.03267021347e-11, No Iterations 1
DILUPBiCG:  Solving for thetayy, Initial residual = 1.39529684549e-05, Final residual = 8.34006913598e-15, No Iterations 2
DILUPBiCG:  Solving for thetazz, Initial residual = 0, Final residual = 0, No Iterations 0
ExecutionTime = 958.26 s  ClockTime = 2090 s

Courant Number mean: 0.0265853187013 max: 0.199999963183
deltaT = 0.00169051442106
Time = 11.9811127475176864

Inner iteration:  0

Eigen:BiCGSTAB:ILUT: Solving for Ux, Initial residual = 0.00917622667304 Final residual = 1.47503152782e-14, No Iterations 2
Eigen:BiCGSTAB:ILUT: Solving for Uy, Initial residual = 0.119754383715 Final residual = 2.58709298395e-14, No Iterations 2
Eigen:BiCGSTAB:ILUT: Solving for p, Initial residual = 0.000496807949832 Final residual = 4.29236381291e-14, No Iterations 2
time step continuity errors : sum local = 1.70737180871e-15, global = 1.41141249428e-20, cumulative = 1.90594176705e-19
DILUPBiCG:  Solving for thetaxx, Initial residual = 1.49145016772e-05, Final residual = 7.70941443616e-11, No Iterations 1
DILUPBiCG:  Solving for thetaxy, Initial residual = 2.34801822787e-05, Final residual = 8.05398183e-11, No Iterations 1
DILUPBiCG:  Solving for thetayy, Initial residual = 1.39534972132e-05, Final residual = 8.35733818246e-15, No Iterations 2
DILUPBiCG:  Solving for thetazz, Initial residual = 0, Final residual = 0, No Iterations 0
ExecutionTime = 958.66 s  ClockTime = 2091 s

Courant Number mean: 0.0265852039364 max: 0.199999965681
deltaT = 0.00169051471114
Time = 11.982803261938745

Inner iteration:  0

Eigen:BiCGSTAB:ILUT: Solving for Ux, Initial residual = 0.00915851112058 Final residual = 1.6302552422e-14, No Iterations 2
Eigen:BiCGSTAB:ILUT: Solving for Uy, Initial residual = 0.119477572074 Final residual = 2.65019631868e-14, No Iterations 2
Eigen:BiCGSTAB:ILUT: Solving for p, Initial residual = 0.000495624201368 Final residual = 4.18815699617e-14, No Iterations 2
time step continuity errors : sum local = 1.73116013752e-15, global = 5.52400696363e-21, cumulative = 1.96118183668e-19
DILUPBiCG:  Solving for thetaxx, Initial residual = 1.49205687874e-05, Final residual = 7.68456181502e-11, No Iterations 1
DILUPBiCG:  Solving for thetaxy, Initial residual = 2.34891204154e-05, Final residual = 8.07499487663e-11, No Iterations 1
DILUPBiCG:  Solving for thetayy, Initial residual = 1.39545763328e-05, Final residual = 8.37430440619e-15, No Iterations 2
DILUPBiCG:  Solving for thetazz, Initial residual = 0, Final residual = 0, No Iterations 0
ExecutionTime = 959.07 s  ClockTime = 2091 s

Courant Number mean: 0.026585088224 max: 0.199999963251
deltaT = 0.00169051502176
Time = 11.9844937766498845

Inner iteration:  0

Eigen:BiCGSTAB:ILUT: Solving for Ux, Initial residual = 0.0091398787568 Final residual = 1.59862769021e-14, No Iterations 2
Eigen:BiCGSTAB:ILUT: Solving for Uy, Initial residual = 0.119196653633 Final residual = 2.64085983948e-14, No Iterations 2
Eigen:BiCGSTAB:ILUT: Solving for p, Initial residual = 0.000494438100267 Final residual = 4.22708842952e-14, No Iterations 2
time step continuity errors : sum local = 1.71790098366e-15, global = 4.73643973504e-21, cumulative = 2.00854623403e-19
DILUPBiCG:  Solving for thetaxx, Initial residual = 1.49240203636e-05, Final residual = 7.66132822638e-11, No Iterations 1
DILUPBiCG:  Solving for thetaxy, Initial residual = 2.34962555338e-05, Final residual = 8.09573239553e-11, No Iterations 1
DILUPBiCG:  Solving for thetayy, Initial residual = 1.39548072122e-05, Final residual = 8.39099386221e-15, No Iterations 2
DILUPBiCG:  Solving for thetazz, Initial residual = 0, Final residual = 0, No Iterations 0
ExecutionTime = 959.47 s  ClockTime = 2092 s

Courant Number mean: 0.0265849717495 max: 0.19999996576
deltaT = 0.00169051531118
Time = 11.9861842916716448

Inner iteration:  0

Eigen:BiCGSTAB:ILUT: Solving for Ux, Initial residual = 0.00912116484684 Final residual = 1.60214905142e-14, No Iterations 2
Eigen:BiCGSTAB:ILUT: Solving for Uy, Initial residual = 0.118937356921 Final residual = 2.61210138555e-14, No Iterations 2
Eigen:BiCGSTAB:ILUT: Solving for p, Initial residual = 0.000493194887697 Final residual = 4.15087328309e-14, No Iterations 2
time step continuity errors : sum local = 1.67751725385e-15, global = 5.44596357283e-21, cumulative = 2.06300586976e-19
DILUPBiCG:  Solving for thetaxx, Initial residual = 1.49256338202e-05, Final residual = 7.6384862743e-11, No Iterations 1
DILUPBiCG:  Solving for thetaxy, Initial residual = 2.35012645436e-05, Final residual = 8.11667036436e-11, No Iterations 1
DILUPBiCG:  Solving for thetayy, Initial residual = 1.39582357604e-05, Final residual = 8.40995043302e-15, No Iterations 2
DILUPBiCG:  Solving for thetazz, Initial residual = 0, Final residual = 0, No Iterations 0
ExecutionTime = 959.88 s  ClockTime = 2092 s

Courant Number mean: 0.0265848542824 max: 0.199999963314
deltaT = 0.00169051562127
Time = 11.9878748069828234

Inner iteration:  0

Eigen:BiCGSTAB:ILUT: Solving for Ux, Initial residual = 0.00910151094072 Final residual = 1.67145838731e-14, No Iterations 2
Eigen:BiCGSTAB:ILUT: Solving for Uy, Initial residual = 0.118668629007 Final residual = 2.59270714661e-14, No Iterations 2
Eigen:BiCGSTAB:ILUT: Solving for p, Initial residual = 0.000491961662348 Final residual = 4.21111261523e-14, No Iterations 2
time step continuity errors : sum local = 1.69315989494e-15, global = 1.09099624167e-21, cumulative = 2.07391583218e-19
DILUPBiCG:  Solving for thetaxx, Initial residual = 1.49270187882e-05, Final residual = 7.61527741903e-11, No Iterations 1
DILUPBiCG:  Solving for thetaxy, Initial residual = 2.35045144423e-05, Final residual = 8.13743712625e-11, No Iterations 1
DILUPBiCG:  Solving for thetayy, Initial residual = 1.39619106307e-05, Final residual = 8.43037462283e-15, No Iterations 2
DILUPBiCG:  Solving for thetazz, Initial residual = 0, Final residual = 0, No Iterations 0
ExecutionTime = 960.3 s  ClockTime = 2092 s

Courant Number mean: 0.0265847363409 max: 0.199999965829
deltaT = 0.0016905159101
Time = 11.9895653226040917

Inner iteration:  0

Eigen:BiCGSTAB:ILUT: Solving for Ux, Initial residual = 0.00908178092116 Final residual = 1.56764980284e-14, No Iterations 2
Eigen:BiCGSTAB:ILUT: Solving for Uy, Initial residual = 0.118398598385 Final residual = 2.64471180052e-14, No Iterations 2
Eigen:BiCGSTAB:ILUT: Solving for p, Initial residual = 0.000490687342545 Final residual = 4.22232037066e-14, No Iterations 2
time step continuity errors : sum local = 1.72313533585e-15, global = -1.22019836344e-20, cumulative = 1.95189599584e-19
DILUPBiCG:  Solving for thetaxx, Initial residual = 1.49287173443e-05, Final residual = 7.59152930343e-11, No Iterations 1
DILUPBiCG:  Solving for thetaxy, Initial residual = 2.35047886526e-05, Final residual = 8.15779164848e-11, No Iterations 1
DILUPBiCG:  Solving for thetayy, Initial residual = 1.39647121033e-05, Final residual = 8.45098094324e-15, No Iterations 2
DILUPBiCG:  Solving for thetazz, Initial residual = 0, Final residual = 0, No Iterations 0
ExecutionTime = 960.7 s  ClockTime = 2093 s

Courant Number mean: 0.0265846205268 max: 0.199999963365
deltaT = 0.00169051621976
Time = 11.9912558385141939

Inner iteration:  0

Eigen:BiCGSTAB:ILUT: Solving for Ux, Initial residual = 0.00906122756138 Final residual = 1.59656047264e-14, No Iterations 2
Eigen:BiCGSTAB:ILUT: Solving for Uy, Initial residual = 0.118118566149 Final residual = 2.64893334761e-14, No Iterations 2
Eigen:BiCGSTAB:ILUT: Solving for p, Initial residual = 0.000489485355633 Final residual = 4.2245129609e-14, No Iterations 2
time step continuity errors : sum local = 1.68035650272e-15, global = -2.39956164036e-21, cumulative = 1.92790037943e-19
DILUPBiCG:  Solving for thetaxx, Initial residual = 1.49295507846e-05, Final residual = 7.56736139175e-11, No Iterations 1
DILUPBiCG:  Solving for thetaxy, Initial residual = 2.3502561712e-05, Final residual = 8.17817283458e-11, No Iterations 1
DILUPBiCG:  Solving for thetayy, Initial residual = 1.39666196039e-05, Final residual = 8.47145027978e-15, No Iterations 2
DILUPBiCG:  Solving for thetazz, Initial residual = 0, Final residual = 0, No Iterations 0
ExecutionTime = 961.1 s  ClockTime = 2093 s

Courant Number mean: 0.0265845039738 max: 0.199999965884
deltaT = 0.00169051650813
Time = 11.9929463547339559

Inner iteration:  0

Eigen:BiCGSTAB:ILUT: Solving for Ux, Initial residual = 0.00904058040435 Final residual = 1.52648834896e-14, No Iterations 2
Eigen:BiCGSTAB:ILUT: Solving for Uy, Initial residual = 0.117837627638 Final residual = 2.69497510019e-14, No Iterations 2
Eigen:BiCGSTAB:ILUT: Solving for p, Initial residual = 0.00048825177228 Final residual = 4.24245395218e-14, No Iterations 2
time step continuity errors : sum local = 1.69217383618e-15, global = -1.16005578414e-20, cumulative = 1.81189480102e-19
DILUPBiCG:  Solving for thetaxx, Initial residual = 1.4929245478e-05, Final residual = 7.54318189926e-11, No Iterations 1
DILUPBiCG:  Solving for thetaxy, Initial residual = 2.34982666763e-05, Final residual = 8.19823775302e-11, No Iterations 1
DILUPBiCG:  Solving for thetayy, Initial residual = 1.39672552183e-05, Final residual = 8.491092551e-15, No Iterations 2
DILUPBiCG:  Solving for thetazz, Initial residual = 0, Final residual = 0, No Iterations 0
ExecutionTime = 961.51 s  ClockTime = 2094 s

Courant Number mean: 0.0265843866445 max: 0.199999963406
deltaT = 0.00169051681745
Time = 11.9946368712420899

Inner iteration:  0

Eigen:BiCGSTAB:ILUT: Solving for Ux, Initial residual = 0.00901899974986 Final residual = 1.62520413513e-14, No Iterations 2
Eigen:BiCGSTAB:ILUT: Solving for Uy, Initial residual = 0.117547720763 Final residual = 2.59024138276e-14, No Iterations 2
Eigen:BiCGSTAB:ILUT: Solving for p, Initial residual = 0.000487022013913 Final residual = 4.20137685105e-14, No Iterations 2
time step continuity errors : sum local = 1.73270018539e-15, global = 8.07412406727e-21, cumulative = 1.89263604169e-19
DILUPBiCG:  Solving for thetaxx, Initial residual = 1.4927561356e-05, Final residual = 7.51891858922e-11, No Iterations 1
DILUPBiCG:  Solving for thetaxy, Initial residual = 2.34945834977e-05, Final residual = 8.21817267779e-11, No Iterations 1
DILUPBiCG:  Solving for thetayy, Initial residual = 1.39664766323e-05, Final residual = 8.50962125598e-15, No Iterations 2
DILUPBiCG:  Solving for thetazz, Initial residual = 0, Final residual = 0, No Iterations 0
ExecutionTime = 961.88 s  ClockTime = 2094 s

Courant Number mean: 0.0265842694666 max: 0.199999965943
deltaT = 0.00169051710532
Time = 11.9963273880595409

Inner iteration:  0

Eigen:BiCGSTAB:ILUT: Solving for Ux, Initial residual = 0.00899734060069 Final residual = 1.65203996373e-14, No Iterations 2
Eigen:BiCGSTAB:ILUT: Solving for Uy, Initial residual = 0.117256616681 Final residual = 2.64024329512e-14, No Iterations 2
Eigen:BiCGSTAB:ILUT: Solving for p, Initial residual = 0.0004857317398 Final residual = 4.22041053693e-14, No Iterations 2
time step continuity errors : sum local = 1.6872073161e-15, global = 1.34185233018e-21, cumulative = 1.90605456499e-19
DILUPBiCG:  Solving for thetaxx, Initial residual = 1.49256674291e-05, Final residual = 7.4947630178e-11, No Iterations 1
DILUPBiCG:  Solving for thetaxy, Initial residual = 2.34910867362e-05, Final residual = 8.23803904092e-11, No Iterations 1
DILUPBiCG:  Solving for thetayy, Initial residual = 1.39648266206e-05, Final residual = 8.52734102497e-15, No Iterations 2
DILUPBiCG:  Solving for thetazz, Initial residual = 0, Final residual = 0, No Iterations 0
ExecutionTime = 962.25 s  ClockTime = 2094 s

Courant Number mean: 0.0265841520671 max: 0.199999963459
deltaT = 0.00169051741418
Time = 11.998017905164863

Inner iteration:  0

Eigen:BiCGSTAB:ILUT: Solving for Ux, Initial residual = 0.00897503297023 Final residual = 1.67992117914e-14, No Iterations 2
Eigen:BiCGSTAB:ILUT: Solving for Uy, Initial residual = 0.1169703205 Final residual = 2.58012850779e-14, No Iterations 2
Eigen:BiCGSTAB:ILUT: Solving for p, Initial residual = 0.000484539013631 Final residual = 4.2550276816e-14, No Iterations 2
time step continuity errors : sum local = 1.71918942638e-15, global = -1.74510361414e-20, cumulative = 1.73154420358e-19
DILUPBiCG:  Solving for thetaxx, Initial residual = 1.49250371029e-05, Final residual = 7.47176447124e-11, No Iterations 1
DILUPBiCG:  Solving for thetaxy, Initial residual = 2.34864036409e-05, Final residual = 8.25797485985e-11, No Iterations 1
DILUPBiCG:  Solving for thetayy, Initial residual = 1.39620801144e-05, Final residual = 8.54444520257e-15, No Iterations 2
DILUPBiCG:  Solving for thetazz, Initial residual = 0, Final residual = 0, No Iterations 0
ExecutionTime = 962.65 s  ClockTime = 2095 s

Courant Number mean: 0.0265840341515 max: 0.199999966011
deltaT = 0.00169051770148
Time = 11.9997084225790474

Inner iteration:  0

Eigen:BiCGSTAB:ILUT: Solving for Ux, Initial residual = 0.00895905648643 Final residual = 1.66035331465e-14, No Iterations 2
Eigen:BiCGSTAB:ILUT: Solving for Uy, Initial residual = 0.116684495603 Final residual = 2.53616178283e-14, No Iterations 2
Eigen:BiCGSTAB:ILUT: Solving for p, Initial residual = 0.000483405910063 Final residual = 4.30750453645e-14, No Iterations 2
time step continuity errors : sum local = 1.7289826681e-15, global = -1.00649783587e-20, cumulative = 1.63089441999e-19
DILUPBiCG:  Solving for thetaxx, Initial residual = 1.49237741228e-05, Final residual = 7.44980944155e-11, No Iterations 1
DILUPBiCG:  Solving for thetaxy, Initial residual = 2.34793175673e-05, Final residual = 8.27797077344e-11, No Iterations 1
DILUPBiCG:  Solving for thetayy, Initial residual = 1.3958836149e-05, Final residual = 8.56077942743e-15, No Iterations 2
DILUPBiCG:  Solving for thetazz, Initial residual = 0, Final residual = 0, No Iterations 0
ExecutionTime = 966.61 s  ClockTime = 2099 s

End

